11

C      12.62       1.87       3.18
C      12.23       1.75       1.85
O      13.74       2.49       5.16
C      13.34       2.88       4.03
C      12.42       2.54       0.62
O      13.43       4.08       3.58
O      13.09       3.64       0.63
O      11.93       2.13      -0.48
N      12.17       0.74       3.80
N      11.51      -0.04       2.93
N      11.54       0.57       1.75
