13

O       5.53       4.70       0.61
O       4.93       3.29       2.22
C       8.26       0.83       1.48
C       7.14       1.61       1.76
H       8.54      -0.02       2.10
C       7.69       2.97      -0.15
C       8.78       2.14      -0.37
H       9.47       2.32      -1.19
H       6.50       1.39       2.61
C       6.85       2.71       0.93
C       5.70       3.61       1.26
H       7.50       3.83      -0.79
N       9.06       1.09       0.42
