13

C      13.37       7.42      10.39
C      12.53       7.15      11.48
C      11.44       7.97      11.70
C      14.53       6.52      10.06
O      14.71       5.44      10.73
O      15.29       6.84       9.09
H      11.67      10.13       9.22
H      13.72       8.73       8.72
H      12.72       6.29      12.12
H      10.75       7.79      12.52
N      11.15       9.02      10.90
C      11.95       9.29       9.85
C      13.08       8.52       9.57
