308

Zn       1.55       9.89      10.17
Zn       4.85       5.02      28.71
Zn       4.83       2.75      26.34
Zn       9.69      20.40      18.16
Zn       0.84      20.95      20.81
Zn       3.30      25.18       5.19
Zn       4.85      28.01       4.91
Zn       0.01      12.63      10.72
Zn       6.38       5.58      26.06
Zn       3.29       5.49      25.79
Zn       4.83      25.74       2.54
Zn       8.13      20.87      21.08
Zn       8.84       9.80      10.44
Zn       6.39      25.27       5.46
Zn       9.67      18.13      20.53
Zn      -0.01      10.36      13.08
H      10.03      12.99      16.30
H      -0.32      27.02       5.72
H       7.34       8.53      15.68
H       7.08      21.17       7.03
H       2.24       5.80       8.59
H       3.74       6.92      19.16
H       4.49      28.36      30.57
H       3.04      15.17       8.70
H       6.71      18.89       7.88
H       2.35      22.22      15.57
H       7.88      30.55       6.92
H       1.85       6.73       0.06
H       6.19      24.81       9.83
H       8.32      29.05      23.94
H       7.38      15.21       8.90
H       0.96      24.92      20.87
H       6.69      22.11      15.56
H       2.99       8.65      15.69
H       6.64      15.59      22.54
H       5.21      11.64       9.90
H       5.17       9.48      12.08
H       8.73       5.84      10.38
H       5.19       2.39       0.68
H       3.49       5.95      21.42
H       1.80       0.21      24.33
H       1.35       9.43       5.80
H       6.49       9.54      26.01
H       7.81      27.25      23.50
H       4.47      19.11      21.35
H       7.73       8.24       6.79
H       4.17       7.89      17.53
H       5.40       0.58       2.41
H       7.83      24.03      31.18
H       1.96      22.52      24.46
H       5.51      22.87      13.72
H       4.51      21.28      19.17
H       2.78      18.88       6.09
H       4.28      30.17      28.84
H       2.30      15.55      22.34
H       6.20      17.09       8.32
H       1.80      23.91      31.19
H      -0.35      17.77      14.95
H       1.37      27.25      21.72
H       8.34      21.33      25.45
H       7.88       6.84       0.06
H      -0.37      24.85       3.54
H       3.19      21.21       5.24
H       5.94      23.84      12.09
H       9.01      23.27      29.35
H       2.23      23.51      26.75
H       1.85      30.59       6.72
H      10.00       3.73      25.52
H      -0.14      15.96      13.22
H      10.05       5.90      27.70
H       7.83       0.17      24.53
H       7.45       7.24       4.50
H       7.49       7.14      22.41
H       2.60       9.58      24.22
H       6.91      11.88      25.16
H       7.77       8.13      20.12
H       1.10       8.46       3.54
H       8.58      22.30      27.71
H       3.48      13.67      22.93
H       1.36       1.71       7.31
H       7.44      24.96      22.66
H       1.87       3.51       7.75
H       2.97      11.87      23.37
H       2.19      23.62       8.83
H       0.67       7.49       1.90
H       8.31       3.50       9.53
H       1.91      22.62      11.13
H       9.82      14.80      18.03
C       0.20      25.45      21.44
C       9.36      24.81      21.71
C       7.01      21.37      18.16
C       3.30      21.75      17.44
C       2.17       5.99      28.71
C       6.15      20.66       6.83
C       4.00      13.33       9.32
C       4.52       9.43      25.16
C       0.26       8.39       4.23
C       9.27      21.80      25.75
C      10.01       0.04      24.32
C       0.86       0.72      24.51
C      10.05       6.87       0.22
C       8.79       2.01      25.07
C       4.33       8.02      25.64
C       2.84      23.10      10.83
C      -0.33      28.06       6.05
C       5.38       5.86      23.41
C       2.03      21.55      18.21
C       1.15      22.48      25.19
C       4.98      12.04      24.22
C       8.84       6.38      29.43
C       3.76      11.39      23.95
C       5.80       7.59      19.48
C      -0.37      24.58       2.49
C       1.30      23.03      26.45
C       0.26      22.96      27.39
C       4.61      29.75       0.96
C       0.84      24.38       1.82
C       9.79      17.47      17.61
C       0.90       6.65      30.79
C       8.37      25.47      22.45
C       5.16       9.20      13.13
C       9.73       8.91       6.42
C       5.49       6.47      22.04
C       4.47      18.08      21.67
C       5.74      10.07      25.43
C       0.89      28.75       6.17
C       5.31       0.34       1.35
C       8.53       8.28       6.06
C       9.91      15.04      16.98
C      -0.11      13.29      13.63
C      10.23       3.34       8.59
C       3.94      20.68       5.82
C       5.97      11.36      24.96
C       3.25      17.39      21.80
C       8.79      24.46       1.80
C       5.92      19.37       7.30
C       8.84      28.71       6.30
C       2.11      24.58       2.58
C       9.84       9.51       7.79
C       2.99      23.65       9.56
C       7.51      24.76       2.53
C       4.33      17.34       7.47
C       9.42      22.36      27.02
C       9.08       7.25       2.50
C       5.73      21.67      17.43
C       2.67       9.39      13.09
C       5.17       8.51      15.84
C       6.39       8.67      15.16
C       6.96      18.18      21.66
C       4.73      28.66       1.99
C       0.84       2.04      24.95
C       3.95       9.09      13.82
C       9.17      23.40      21.23
C       0.89      30.07       6.61
C       0.41       8.95       5.50
C      -0.33      30.71       6.93
C       3.29      22.09      16.09
C       5.21      12.68       9.58
C       7.57       6.17      28.67
C      -0.37      23.88      31.03
C       7.70      12.65       9.83
C       5.69      17.42      21.92
C       8.83       6.71      30.78
C       7.65       9.20      13.04
C       8.79      24.10       0.46
C       4.19      24.29       9.21
C       2.12       2.80      25.22
C       4.95       2.09      29.26
C       8.60      26.77      22.92
C      -0.55      27.42      22.65
C      10.03      14.04      16.02
C       3.95       8.73      15.17
C       9.25       4.02       9.34
C       4.70      18.72       7.03
C       0.32       5.95       9.54
C       9.87       1.96       8.15
C       9.48       5.30       9.81
C       2.16      28.03       5.80
C       4.52      21.55      18.12
C       6.38       9.00      13.81
C       6.43      14.69       9.02
C       4.43       6.43      21.13
C       0.51       7.36      10.01
C       6.14       8.12      18.13
C       5.16      21.32       6.09
C       0.43      26.74      21.91
C      -0.16      21.24      23.46
C      10.01       2.70      25.20
C       4.37      30.42      29.89
C       1.98      18.10      21.42
C       6.84       7.65      20.42
C       1.08       3.99       8.33
C       5.21      15.33       8.70
C       2.72      12.57       9.59
C       4.47      15.42      22.55
C       5.10      23.77      11.39
C      -0.18      28.80      23.10
C       0.86      24.04       0.46
C       3.53      10.10      24.42
C       5.35      13.42      23.77
C       5.25      24.33      10.12
C       7.52       2.73      25.45
C      -0.35      16.72      15.23
C       4.58       6.98      19.85
C       0.60      23.50      28.75
C       3.98      14.66       8.89
C       5.07       1.01      30.29
C       8.79       0.69      24.64
C       6.43      13.37       9.45
C       3.54      22.63      13.12
C       1.31       5.28       8.80
C       5.70      16.10      22.36
C       4.51      22.25      15.40
C       7.56      27.95       6.03
C       4.30      24.89       7.83
C       5.74      22.03      16.08
C      -0.23      15.72      14.27
C       5.19       1.34       0.40
C      -0.05      21.84      24.83
C       9.91      16.39      16.59
C       9.42       7.79       3.86
C       8.82      30.04       6.74
C       3.25      16.07      22.23
C       4.49      29.41      30.85
C       8.38       7.72       4.80
C       6.69       7.10      21.68
C      -0.23      14.37      14.66
C      10.05       6.17      28.76
C       3.71      19.39       6.28
C       0.89       6.29      29.44
C       3.88      23.17      11.77
C       5.35      22.73       5.61
N       9.23      29.49      23.84
N       5.10       8.13      17.19
N      10.12       7.25       1.56
N       4.39      14.11      23.03
N      -0.44      23.51      29.68
N       0.45       1.27       7.40
N       4.58      22.62      14.06
N       5.29      16.65       8.22
O       6.42       2.07      25.36
O       5.22       7.52      26.38
O       8.78       1.46       8.43
O       6.92      21.24      19.41
O       7.66       3.92      25.85
O       4.80       4.65      26.78
O       1.73      23.90      29.02
O       2.08       5.86      27.46
O       8.81       9.32       8.54
O      10.00       7.85      10.76
O       8.79      13.31       9.74
O       0.04      10.73      11.16
O       7.95       6.86       2.23
O       7.27       8.52      17.85
O       3.26      28.69       5.88
O       2.02      26.84       5.40
O       8.07      21.25      17.44
O       7.56      11.46      10.23
O       0.98      21.29      17.53
O       8.70       9.46      13.72
O       9.17      20.62      23.13
O       2.12      19.30      21.02
O       7.67       6.26      27.40
O       1.57       7.98       9.61
O       0.90      29.30      22.82
O       3.27      24.69       7.09
O       6.52       5.91      29.34
O       0.89      17.44      21.51
O      -0.04      13.66      12.41
O       2.76       9.52      11.84
O       2.84      11.31       9.60
O       3.24      16.83       7.19
O      -0.08      12.09      14.07
O       7.68      26.68       6.02
O       6.41       6.06      24.16
O       0.87      21.44      22.71
O       2.13      21.63      19.47
O       4.46      23.23       4.86
O       3.23       5.87      29.43
O       1.61       9.50      13.80
O       2.01      24.50       3.85
O       6.41      23.36       6.02
O       7.55       9.12      11.78
O       3.18       2.12      25.43
O       4.33       5.24      23.74
O       8.02      17.50      21.44
O       8.12      22.78      21.64
O       9.76      18.67      17.18
O       1.67      13.25       9.81
O       0.51      10.14       8.12
O       4.80      29.04       3.21
O       7.60      24.89       3.79
O       6.44      13.92      24.05
O       3.28       7.40      25.23
O      -0.32      22.90      20.49
O       6.45      24.88       1.82
O       4.76      27.46       1.56
O       9.72      17.10      18.84
O       4.92       3.29      29.69
O       2.41      22.23      13.40
O       2.00       4.07      25.23
O       4.88      26.11       4.47
O       4.88       1.72      28.04
O       9.64      20.02      20.09
O       6.51      28.63       5.82
O       3.17      24.84       1.91
O       5.35      25.52       7.50
O       6.84      19.45      21.64
