139

Zn      13.26       6.55       9.99
Zn      11.48       4.54       1.58
Zn       0.00       0.00       0.00
H      13.32       1.37       1.85
H       7.95       4.73       9.48
H       5.05       4.50       0.71
H      11.15       2.88      10.25
H      10.21       3.48       8.86
H       2.14       2.54       0.35
H       7.81       4.74       0.91
H       9.41       1.51       0.52
H       8.30       2.35       1.63
H      20.70      10.83      10.57
H       5.86       1.87       1.58
H       7.62       9.39       2.59
H      18.50       9.08       2.52
H       8.09       6.96       2.91
H       6.38       6.56       2.66
H       9.34       8.88       7.20
H      21.04       8.19       8.56
H       9.28       5.87       7.86
H      10.31       6.65       6.66
H      16.15       6.27       6.23
H      16.80       6.43       7.87
H      16.57       8.99       7.58
H      15.58       8.67       6.15
H      14.11       3.80       8.31
H      10.78       0.27       2.79
H      11.42       9.72       9.71
H      16.79       6.36       2.08
H      19.68       6.59      10.86
H      13.59       8.21       1.32
H      14.53       7.61       2.70
H      22.59       8.55      11.22
H      16.93       6.35      10.65
H      15.32       9.58      11.04
H      16.44       8.74       9.94
H       4.04       0.26       1.00
H      18.88       9.22       9.99
H      17.12       1.70       8.97
H       6.24       2.01       9.04
H      16.65       4.13       8.66
H      18.36       4.53       8.90
H      15.40       2.21       4.36
H       3.70       2.90       3.00
H      15.46       5.22       3.70
H      14.43       4.44       4.91
H       8.59       4.82       5.34
H       7.93       4.66       3.69
H       8.17       2.10       3.98
H       9.16       2.42       5.41
H      10.63       7.28       3.26
H      13.96      10.82       8.77
C       8.46       5.01      10.39
C       9.63       4.33      10.77
C       4.16       5.03       0.39
C      10.15       3.20       9.92
C       8.28       0.26       9.36
C       8.42       1.67      10.98
C      14.14       3.64       9.38
C      14.05       3.98      11.49
C       8.40       1.91       0.63
C       7.33       0.89       0.34
C      19.71      10.93      11.01
C       6.05       1.05       0.89
C       6.97       8.45       0.79
C       6.87       8.64       2.29
C       7.07       7.32       3.04
C       7.93       7.71       5.31
C      18.16       7.17       4.96
C      19.06       7.41       7.26
C       8.84       7.98       7.57
C       9.81       6.80       7.63
C      10.88       7.01       8.68
C      16.68       6.93       6.91
C      15.91       8.24       7.11
C      14.71       8.07       8.04
C      16.27       6.08       1.17
C      15.11       6.76       0.79
C      20.58       6.06      11.18
C      14.59       7.89       1.64
C      16.46      10.83       2.21
C      16.31       9.42       0.58
C      10.60       7.45       2.19
C      10.69       7.11       0.07
C      16.34       9.18      10.93
C      17.40      10.20      11.22
C       5.03       0.16       0.55
C      18.69      10.04      10.67
C      17.77       2.64      10.77
C      17.87       2.45       9.27
C      17.67       3.77       8.53
C      16.81       3.38       6.25
C       6.58       3.92       6.60
C       5.68       3.68       4.31
C      15.90       3.11       3.99
C      14.93       4.29       3.94
C      13.86       4.08       2.88
C       8.06       4.16       4.65
C       8.83       2.85       4.45
C      10.03       3.02       3.52
N       6.83       7.42       4.49
N      18.02       7.15       6.35
N      20.29       7.70       6.68
N      13.88       4.60      10.32
N      14.46       2.46       9.90
N      14.39       2.70      11.25
N       7.80       0.54      10.61
N       9.18       1.14       8.94
N       9.24       2.04       9.98
N      17.90       3.67       7.07
N       6.71       3.94       5.21
N       4.44       3.39       4.88
N      10.85       6.49       1.25
N      10.28       8.63       1.66
N      10.35       8.39       0.32
N      16.94      10.54       0.96
N      15.56       9.94       2.62
N      15.49       9.05       1.58
O      11.81       6.12       8.71
O      10.81       7.99       9.47
O      14.83       7.12       8.92
O      13.73       8.84       7.93
O      13.10       9.10      11.55
O       7.07       7.23       0.38
O       9.04       7.94       4.85
O      17.21       6.96       4.21
O      18.88       7.37       8.47
O      13.36       0.40       1.71
O      12.93       4.97       2.85
O      13.92       3.10       2.09
O       9.91       3.96       2.64
O      11.00       2.25       3.63
O      11.63       1.99       0.01
O      17.67       3.85      11.19
O      15.69       3.14       6.71
O       7.53       4.13       7.35
O       5.86       3.72       3.09
O      11.37      10.69       9.86
