17

C      -0.06       6.54       6.48
O       0.87       7.29       6.05
O      -1.01       6.02       5.79
H       2.98       7.20      10.23
H       1.60       7.33       8.29
H      -0.95       5.62       8.30
C       0.80       6.77       8.78
C      -0.12       6.24       7.95
C       0.86       6.69      10.23
C       2.10       6.96      10.82
C      -0.22       6.41      11.08
C       1.27       6.66      12.96
H      -1.23       6.27      10.69
C      -0.01       6.41      12.45
H       1.48       6.68      14.03
H      -0.84       6.27      13.14
N       2.31       6.92      12.15
