17

O       4.85       6.71      10.94
O       7.11       6.90      11.15
C       6.06       6.83      10.47
C       4.12       6.66       5.83
C       5.26       6.73       6.66
C       5.15       6.69       8.12
C       6.50       6.85       6.03
C       6.17       6.88       8.98
C       4.28       6.71       4.45
C       5.56       6.80       3.91
H       3.12       6.60       6.26
H       4.17       6.47       8.52
H       7.42       6.91       6.60
H       7.18       7.11       8.63
H       3.41       6.68       3.80
H       5.75       6.84       2.84
N       6.66       6.87       4.70
