17

C      -0.28      -0.52       7.41
C       1.59      -0.28      12.05
H       1.55      -0.11       9.37
O       0.92      -0.31       6.96
H      -1.45      -0.79       9.23
O      -1.31      -0.71       6.71
C      -0.44      -0.55       8.90
C       0.56      -0.33       9.77
C       0.46      -0.38      11.23
C      -0.78      -0.53      11.87
H       2.59      -0.19      11.62
C       1.45      -0.33      13.44
H      -1.71      -0.63      11.32
H       2.33      -0.29      14.08
C       0.18      -0.46      13.99
H      -0.01      -0.49      15.06
N      -0.92      -0.54      13.21
