17

C      -2.70       1.64      16.04
C      -2.65       2.95      18.10
C      -2.23       3.92      18.94
H      -3.12       2.09      18.57
H      -1.71       4.81      18.59
C      -2.39       4.01      15.79
H      -2.85       0.74      16.63
O      -3.16       2.82      20.83
C      -2.48       2.51      13.90
O      -2.12       4.83      21.09
H      -2.49       2.29      12.83
C      -2.37       3.80      14.41
H      -2.31       4.64      13.73
H      -2.36       5.03      16.17
C      -2.53       3.83      20.40
N      -2.64       1.44      14.72
C      -2.55       2.90      16.64
