26

Ni      -0.41       7.28      28.56
Ni      -1.37      10.21      28.00
Ni       1.72       9.90      29.10
Ni      -3.37       7.52      27.38
H      -0.41       9.30      30.15
H      -1.20       8.23      26.40
C      -0.01      12.23      29.49
O      -0.10       9.20      29.21
O       0.98       6.47      29.81
O       2.58       8.03      29.36
O      -1.71       7.17      30.12
O      -2.73       5.87      26.41
O       1.70       9.67      27.07
O      -1.56       8.30      27.31
O      -0.90       5.38      27.93
O      -3.04      10.87      27.05
O      -4.26       9.26      28.10
O      -3.63       6.46      29.13
O      -0.20      10.72      26.37
C       1.11      10.55      26.31
C       2.04       7.15      30.18
C      -2.75       6.38      30.11
C      -4.20      10.37      27.39
C      -1.61       5.09      26.75
O      -1.04      12.09      28.70
O       1.17      11.86      29.04
