26

Ni       6.72       6.22      12.46
Ni       8.65       3.78      11.40
Ni       5.56       3.23      11.29
Ni       7.48       0.77      10.66
C      10.29       1.66      10.12
C       6.32       1.13      13.34
C       4.62       0.87       9.84
H       6.99       3.90      13.34
H       7.24       2.92       9.40
O       8.68       6.70      12.65
O       4.65       6.19      12.41
O       6.82       6.40      10.44
C       7.98       6.32       9.83
C       9.50       5.85      13.22
O       9.96       4.87      12.50
O       8.71       5.22       9.90
O       6.94       4.25      12.41
O       3.90       4.06      12.16
O      10.24       2.94      10.40
O       7.26       2.70      10.36
O       4.32       2.12      10.11
O       5.34       1.79      12.76
O       9.55       0.81      10.79
O       7.43       0.90      12.70
O       5.52       0.23      10.56
C       3.98       5.16      12.87
