30

H       3.08      15.06       3.72
H       1.66      10.64       6.80
H       2.79       9.29       4.81
H       2.33       8.66       6.17
H       1.81      13.04       6.96
H       3.23      11.05       3.80
H       4.52       7.37       5.53
H       6.78      10.74       7.59
H       6.67       7.11       6.18
H       4.58      11.02       7.07
N       2.20      10.64       6.15
N       6.98       8.90       6.94
C       3.20      13.05       3.54
C       2.38      14.26       5.46
C       3.72      13.01       2.11
C       2.02      15.55       6.14
O       2.01      16.61       5.47
C       2.92      14.25       4.16
O       3.73      14.11       1.48
O       4.11      11.92       1.67
C       2.83       9.39       5.78
O       1.74      15.54       7.36
C       2.17      13.04       6.10
C       3.00      11.85       4.21
C       2.47      11.82       5.49
C       4.96       8.07       5.96
C       4.28       9.25       6.21
C       6.32      10.04       7.18
C       6.25       7.92       6.34
C       5.00      10.22       6.85
