56

Co       0.76       0.96      11.91
Co       5.98       7.55       5.96
Co       7.63       0.88       8.94
Co      -0.90       7.63       2.98
H       0.23       4.13       8.29
H      -0.44       6.21       9.56
H       0.28       4.05       1.31
H       6.50       4.37       2.33
H       7.17       2.30       3.61
H       6.46       4.46       7.27
H       2.77       7.33       9.58
H       0.59       7.51       8.31
H       2.86       7.31       4.65
H       3.97       1.17       3.63
H       6.14       1.00       2.35
H       3.88       1.20      10.60
C       0.57       3.01      10.11
C       0.23       4.16       9.38
C      -0.13       5.30      10.08
C      -0.10       5.30      11.48
C       0.25       4.11       0.22
C      -0.47       6.52       0.33
C       6.17       5.50       4.15
C       6.50       4.35       3.42
C       6.86       3.21       4.12
C       6.84       3.21       5.52
C       6.49       4.40       6.18
C       7.20       1.99       6.29
C       3.94       7.27       7.77
C       2.74       7.33       8.50
C       1.55       7.42       7.79
C       1.56       7.39       6.39
C       2.79       7.32       5.74
C       0.28       7.47       5.63
C       2.80       1.24       1.81
C       3.99       1.18       2.54
C       5.19       1.09       1.84
C       5.18       1.12       0.43
C       3.94       1.19      11.69
C       6.45       1.04      11.58
S       1.00       1.44       9.44
S       5.74       7.07       3.48
S       5.56       7.21       8.44
S       1.17       1.30       2.48
N       0.54       2.99      11.46
N       6.19       5.51       5.50
N       3.95       7.29       6.41
N       2.79       1.22       0.45
O      -0.95       7.50      11.61
O       7.00       2.04       7.56
O       7.68       1.01       5.65
O      -0.26       6.47       1.60
O      -0.78       7.71       6.27
O       6.35       1.23      10.32
O       7.52       0.80       0.31
O       0.38       7.28       4.36
