13

Co       6.49      14.69       1.80
C       7.36      16.50       3.36
C       8.43      14.37       0.12
N       4.73      15.62       1.37
O       7.22      14.78      -0.06
O       8.84      13.97       1.26
N       6.06      12.76       2.21
C       4.62      16.32       0.24
C       3.51      15.72       2.03
C       4.88      12.25       2.56
C       7.02      11.80       2.52
O       7.36      16.89       2.15
O       7.03      15.29       3.66
