13

O       0.28      15.29       8.15
C       0.61      16.50       8.45
Co      -0.26      14.69      10.01
N      -2.02      15.62      10.43
O       0.47      14.78      11.87
O       2.09      13.97      10.55
C      -1.87      12.25       9.24
C       1.68      14.37      11.69
C       0.27      11.80       9.29
C      -2.13      16.32      11.56
N      -0.69      12.76       9.60
C      -3.24      15.72       9.78
O       0.61      16.89       9.66
