13

Co       7.01       6.05      13.61
O       6.14       8.24      13.96
C       8.62       3.61      14.37
C       6.48       3.16      14.32
N       7.44       4.11      14.01
O       6.47       6.64      15.46
C       8.88       7.68      12.05
C       9.99       7.08      13.83
N       8.77       6.98      13.18
O       6.28       6.14      11.74
O       4.66       5.33      13.06
C       6.14       7.86      15.16
C       5.07       5.72      11.93
