13

Co       6.49      11.24      10.01
O       7.36       9.04       9.66
N       4.73      10.31      10.43
O       7.22      11.15      11.87
O       8.84      11.96      10.55
C       8.43      11.56      11.69
C       7.36       9.43       8.45
C       4.88      13.68       9.24
C       4.62       9.61      11.56
N       6.06      13.17       9.60
C       3.51      10.21       9.78
O       7.03      10.64       8.15
C       7.02      14.13       9.29
