23

C       6.48       3.55      14.01
C       7.37       3.57      15.05
N       6.87       3.55      12.72
C       8.72       3.59      14.84
C       8.20       3.56      12.51
C       9.13       3.56      13.52
C       9.73       3.69      15.96
C       9.35       3.60      17.29
C      10.24       3.75      18.31
C      11.98       4.04      16.71
C      11.08       3.90      15.68
C      11.59       3.97      18.02
C       9.81       3.69      19.74
O       8.60       3.41      19.97
O      10.63       3.95      20.66
H       5.57       3.54      14.20
H       7.05       3.58      15.92
H      10.04       3.55      13.31
H       8.50       3.56      11.64
H       8.46       3.44      17.50
H      12.21       4.07      18.70
H      12.88       4.18      16.52
H      11.37       3.94      14.80
