23

N      -2.24      -0.20      14.00
O      -5.84       3.03      21.19
O      -3.77       2.37      20.74
C      -1.86      -0.10      15.28
C      -2.72       0.15      16.33
H      -0.96      -0.21      15.47
C      -4.47       0.22      14.77
C      -3.56      -0.04      13.78
H      -7.37       1.27      19.97
H      -8.06       0.05      18.15
C      -5.47       1.55      19.36
H      -3.87      -0.12      12.90
C      -4.06       0.30      16.09
C      -5.00       0.58      17.19
C      -4.60       1.28      18.32
C      -6.33       0.14      17.13
H      -2.38       0.22      17.19
C      -7.19       0.38      18.18
H      -6.63      -0.32      16.37
C      -6.77       1.09      19.28
C      -5.00       2.37      20.51
H      -5.37       0.35      14.55
H      -3.72       1.58      18.38
