23

N       2.00       0.56       9.42
O       3.73       0.70       2.17
O       5.76       0.16       1.48
C       1.61       0.55       8.13
C       2.51       0.53       7.09
C       3.85       0.52       7.30
C       4.26       0.54       8.62
C       3.33       0.55       9.62
C       4.86       0.41       6.18
C       4.48       0.50       4.85
C       5.38       0.35       3.83
C       6.72       0.13       4.12
C       7.12       0.07       5.43
C       6.21       0.21       6.46
C       4.94       0.41       2.40
H       0.70       0.56       7.93
H       2.18       0.53       6.22
H       5.17       0.56       8.83
H       3.63       0.55      10.50
H       3.59       0.67       4.64
H       7.34       0.03       3.44
H       8.01      -0.08       5.62
H       6.50       0.17       7.34
