23

N       5.23      -3.54      13.29
O       3.36      -5.09      20.21
O       1.50      -4.38      21.18
H       6.53      -3.57      14.76
H       5.07      -3.38      16.52
H       2.06      -3.27      13.90
H       3.59      -3.47      12.23
H       3.59      -4.22      17.90
H       0.04      -3.14      19.43
H      -0.57      -2.30      17.35
C       5.62      -3.51      14.57
H       0.90      -2.39      15.58
C       4.74      -3.41      15.65
C       3.39      -3.35      15.43
C       2.96      -3.34      14.10
C       3.90      -3.45      13.11
C       2.42      -3.30      16.54
C       2.76      -3.82      17.79
C       2.28      -4.43      20.17
C       1.90      -3.75      18.88
C       0.27      -2.68      17.47
C       1.15      -2.74      16.40
C       0.63      -3.18      18.72
