23

N       2.24      10.16      14.00
O       5.84      13.38      21.19
O       3.77      12.73      20.74
C       1.86      10.26      15.28
C       2.72      10.51      16.33
C       4.06      10.66      16.09
C       4.47      10.58      14.77
C       3.56      10.31      13.78
C       5.00      10.94      17.19
C       4.60      11.64      18.32
C       5.47      11.90      19.36
C       6.77      11.45      19.28
C       7.19      10.73      18.18
C       6.33      10.50      17.13
C       5.00      12.73      20.51
H       0.96      10.15      15.47
H       2.38      10.57      17.19
H       5.37      10.71      14.55
H       3.87      10.24      12.90
H       3.72      11.93      18.38
H       7.37      11.63      19.97
H       8.06      10.41      18.15
H       6.63      10.04      16.37
