23

N       7.10      14.66       8.14
C       6.73      14.56       6.86
C       7.58      14.31       5.81
C       8.93      14.16       6.04
C       9.34      14.24       7.37
C       8.42      14.51       8.36
C       9.87      13.89       4.95
O      10.70      11.44       0.95
O       8.64      12.09       1.40
C      11.64      13.37       2.86
C      12.06      14.09       3.96
C      11.20      14.33       5.01
C       9.87      12.09       1.63
C       9.47      13.18       3.82
C      10.34      12.92       2.78
H       5.83      14.68       6.67
H       7.25      14.25       4.95
H      10.24      14.11       7.59
H       8.73      14.59       9.24
H       8.59      12.89       3.76
H      12.23      13.19       2.17
H      12.92      14.42       3.99
H      11.50      14.78       5.76
