23

N      -2.00      10.91       9.42
O      -3.73      11.06       2.17
O      -5.76      10.51       1.48
C      -1.61      10.91       8.13
C      -2.51      10.89       7.09
C      -3.85      10.88       7.30
C      -4.26      10.90       8.62
H      -0.70      10.92       7.93
H      -2.18      10.89       6.22
C      -4.48      10.86       4.85
C      -5.38      10.71       3.83
H      -3.63      10.91      10.50
C      -6.72      10.49       4.12
C      -4.86      10.77       6.18
H      -5.17      10.91       8.83
C      -3.33      10.91       9.62
H      -3.59      11.03       4.64
C      -7.12      10.43       5.43
H      -7.34      10.39       3.44
H      -6.50      10.53       7.34
C      -6.21      10.57       6.46
C      -4.94      10.77       2.40
H      -8.01      10.28       5.62
