23

N      -0.36      18.00       8.85
O       1.51      19.55       1.93
O       3.36      18.84       0.96
C      -0.75      17.97       7.56
C       0.13      17.87       6.49
C       1.47      17.81       6.71
C       1.90      17.81       8.04
C       0.97      17.92       9.03
C       2.45      17.77       5.60
C       2.11      18.28       4.35
C       2.97      18.22       3.25
C       4.24      17.64       3.42
C       4.60      17.14       4.67
C       3.71      17.20       5.73
C       2.58      18.89       1.96
H      -1.66      18.03       7.38
H      -0.21      17.84       5.62
H       2.81      17.74       8.24
H       1.28      17.93       9.91
H       1.27      18.68       4.24
H       4.83      17.60       2.71
H       5.44      16.77       4.79
H       3.97      16.86       6.56
