23

N       0.36       7.64       8.85
O      -1.51       9.20       1.93
O      -3.36       8.48       0.96
C       0.75       7.61       7.56
C      -0.13       7.51       6.49
C      -1.47       7.45       6.71
C      -1.90       7.45       8.04
C      -0.97       7.56       9.03
C      -2.45       7.41       5.60
C      -2.11       7.92       4.35
C      -2.97       7.86       3.25
H       1.66       7.67       7.38
H       0.21       7.48       5.62
H      -2.81       7.38       8.24
C      -3.71       6.84       5.73
H      -1.28       7.57       9.91
H      -1.27       8.33       4.24
C      -4.60       6.78       4.67
C      -4.24       7.29       3.42
C      -2.58       8.54       1.96
H      -3.97       6.50       6.56
H      -4.83       7.24       2.71
H      -5.44       6.41       4.79
