490

Tb       9.15      15.91      21.30
Tb       9.16      15.89       8.96
Tb      -0.00      -0.00      15.30
Tb      -9.12      15.90       3.17
Zn       1.93       3.35      21.03
Zn       3.06       5.33       2.21
Zn      -7.22      12.57      21.02
Zn      12.23      10.60       2.21
Zn      14.46       0.00      21.02
Zn      12.19       0.00       2.21
Zn       7.22      12.56       8.78
Zn       6.10      10.60      14.46
Zn      -1.92       3.36       8.78
Zn      -3.06       5.32      14.46
Zn       3.86       0.01       8.78
Zn       6.12      -0.00      14.46
Zn       5.31      15.93      15.72
Zn      12.19       0.00      10.04
Zn      11.09      12.58      15.72
Zn      12.23      10.60      10.04
Zn       1.93       3.35      15.72
Zn       3.06       5.32      10.04
Zn       3.87       0.00       3.47
Zn       6.12      -0.00      22.28
Zn      16.39       3.35       3.47
Zn      -3.06       5.32      22.28
Zn       7.23      12.58       3.47
Zn       6.10      10.60      22.28
Zn       4.58       7.96       0.00
Zn      -4.58       7.97      24.49
Zn       9.16      -0.00      24.50
Zn       4.58       7.95      12.26
Zn      -4.58       7.96      12.25
Zn       9.16      -0.00      12.25
Zn       0.01      10.62       2.75
Zn       9.16       5.31      15.00
Zn       9.16       5.31       9.49
Zn      -0.00      10.62      21.74
Zn       9.16       5.30      21.74
Zn       0.01      10.62       9.50
Zn      -0.00      10.62      15.00
Zn       9.17       5.31       2.75
H       2.65      10.39       1.27
H       0.56       6.26       3.77
H      -0.27       7.76       4.06
H      -1.52       8.43       1.27
H      -4.04      12.31       3.77
H      -2.33      12.28       4.05
H      -1.13      13.04       1.27
H       3.48      13.29       3.77
H       2.60      11.82       4.05
H       6.51       5.54      13.52
H       8.60       9.67      16.02
H       9.43       8.17      16.30
H      10.68       7.50      13.52
H      13.20       3.62      16.02
H      11.49       3.65      16.30
H      10.29       2.89      13.51
H       5.68       2.64      16.02
H       6.56       4.11      16.30
H       8.03       2.90      10.98
H      12.64       2.64       8.47
H      11.76       4.11       8.19
H      11.81       5.54      10.98
H       9.73       9.66       8.47
H       8.89       8.17       8.19
H       7.64       7.50      10.98
H       5.12       3.62       8.48
H       6.83       3.65       8.19
H       1.13      13.03      23.23
H      -3.48      13.29      20.72
H      -2.60      11.82      20.44
H      -2.64      10.39      23.23
H      -0.56       6.26      20.73
H       0.27       7.76      20.44
H       1.52       8.43      23.23
H       4.04      12.31      20.72
H       2.33      12.28      20.44
H       6.51       5.54      23.23
H       8.60       9.66      20.72
H       9.43       8.17      20.44
H      10.68       7.49      23.23
H      13.20       3.62      20.72
H      11.49       3.65      20.44
H      10.29       2.89      23.23
H       5.68       2.64      20.72
H       6.56       4.11      20.44
H       2.65      10.39      10.98
H       0.56       6.26       8.48
H      -0.27       7.76       8.19
H      -1.52       8.43      10.98
H      -4.04      12.31       8.48
H      -2.33      12.28       8.19
H      -1.12      13.04      10.98
H       3.48      13.29       8.47
H       2.60      11.82       8.19
H       1.13      13.04      13.51
H      -3.48      13.29      16.02
H      -2.60      11.82      16.30
H      -2.64      10.39      13.52
H      -0.56       6.26      16.02
H       0.27       7.76      16.30
H       1.52       8.43      13.52
H       4.05      12.31      16.02
H       2.33      12.28      16.30
H       8.03       2.89       1.27
H      12.64       2.64       3.77
H      11.76       4.11       4.05
H      11.81       5.54       1.27
H       9.73       9.67       3.77
H       8.89       8.17       4.06
H       7.64       7.50       1.27
H       5.12       3.62       3.77
H       6.83       3.65       4.05
H       1.93       3.35      24.15
H       4.15       7.22      21.41
H       3.42       5.95      20.46
H      -7.23      12.58      24.16
H      -5.00       8.71      21.41
H      12.58       9.98      20.46
H      14.47      -0.00      24.16
H      10.01      -0.00      21.41
H      11.48      -0.00      20.46
H       7.24      12.58      11.91
H       5.01       8.71       9.16
H       5.74       9.98       8.21
H      -1.93       3.35      11.91
H      14.17       7.22       9.16
H      14.90       5.95       8.21
H       3.85      -0.00      11.91
H       8.31      -0.00       9.16
H      -2.31      15.93       8.21
H      14.47      -0.00      12.59
H       0.85      15.93      15.33
H       2.32      15.93      16.28
H      11.09      12.58      12.59
H      13.31       8.71      15.33
H      12.58       9.98      16.28
H       1.93       3.35      12.59
H       4.15       7.22      15.33
H       3.42       5.95      16.28
H       3.85       0.00       0.34
H      -0.84      15.93       3.08
H      -2.31      15.93       4.04
H      -1.93       3.35       0.34
H      -4.15       7.22       3.08
H      14.90       5.95       4.04
H       7.24      12.58       0.34
H       5.01       8.71       3.08
H       5.74       9.98       4.03
C      -0.96       3.21      21.80
C       1.30       7.88       2.76
C       2.36       9.43       1.68
C      -5.91      15.16      21.80
C      -3.01      10.86       2.76
C      -2.20       9.16       1.68
C       6.88      13.49      21.80
C       1.72      13.12       2.76
C      -0.15      13.27       1.68
C      10.13      12.72       9.55
C       7.86       8.05      15.00
C       6.80       6.50      13.93
C      15.08       0.76       9.55
C      12.18       5.07      15.00
C      11.36       6.77      13.93
C       2.29       2.44       9.55
C       7.44       2.80      15.00
C       9.32       2.66      13.93
C      16.04       2.43      14.94
C      10.87       2.81       9.49
C       9.00       2.66      10.57
C       8.20      12.72      14.94
C      10.46       8.05       9.49
C      11.52       6.50      10.57
C       3.25       0.77      14.94
C       6.14       5.07       9.49
C       6.96       6.77      10.57
C      -6.87      13.49       2.69
C      -1.71      13.12      21.74
C       0.16      13.27      22.82
C       0.96       3.20       2.70
C      -1.30       7.88      21.74
C      -2.36       9.43      22.82
C       5.91      15.16       2.69
C       3.02      10.86      21.74
C       2.21       9.16      22.82
C      10.13      12.73       2.70
C       7.86       8.05      21.74
C       6.80       6.50      22.82
C      15.07       0.76       2.69
C      12.18       5.07      21.74
C      11.36       6.77      22.82
C       2.29       2.44       2.69
C       7.44       2.80      21.74
C       9.32       2.66      22.82
C      -0.96       3.20      14.94
C       1.30       7.88       9.49
C       2.36       9.43      10.57
C      -5.91      15.17      14.94
C      -3.01      10.86       9.49
C      -2.20       9.16      10.57
C       6.88      13.49      14.94
C       1.72      13.12       9.49
C      -0.15      13.27      10.57
C      -6.87      13.49       9.55
C      -1.71      13.12      15.00
C       0.16      13.27      13.93
C       0.96       3.20       9.55
C      -1.30       7.88      15.00
C      -2.36       9.43      13.93
C       5.92      15.16       9.55
C       3.02      10.86      15.00
C       2.21       9.16      13.93
C      16.03       2.44      21.80
C      10.88       2.81       2.76
C       9.00       2.66       1.68
C       8.20      12.72      21.80
C      10.46       8.05       2.76
C      11.52       6.50       1.68
C       3.25       0.76      21.80
C       6.14       5.07       2.76
C       6.96       6.77       1.68
C       1.49       4.15      18.37
C      -6.32      12.55      18.37
C       4.83      15.15      18.37
C       7.67      11.78       6.12
C      15.49       3.38       6.12
C       4.33       0.77       6.12
C      13.99       0.77      18.37
C      10.66      11.77      18.37
C       2.83       3.38      18.37
C      -4.82      15.16       6.12
C      -1.50       4.15       6.12
C       6.33      12.55       6.12
C       2.44       4.23      23.80
C       3.28       5.70      22.49
C      11.60      11.69      23.80
C      12.44      10.23      22.49
C       4.30      15.93      23.80
C      11.76      -0.00      22.49
C       6.73      11.70      11.56
C       5.89      10.23      10.25
C      15.89       4.23      11.56
C      -3.27       5.70      10.25
C      -4.29      15.93      11.56
C      -2.60      15.93      10.25
C      13.45      -0.00      12.94
C      11.77      -0.00      14.25
C      11.60      11.69      12.94
C      -5.88      10.23      14.25
C       2.44       4.23      12.94
C       3.28       5.70      14.25
C       4.87      -0.00       0.69
C      -2.60      15.93       2.00
C      -2.43       4.23       0.69
C      -3.27       5.70       2.00
C       6.73      11.70       0.69
C       5.89      10.23       2.00
N       2.96       8.29       1.39
N       1.31       9.24       2.54
N       2.29       7.29       2.07
N       0.39       7.23       3.50
N      -3.48       9.21       1.39
N      -1.84      10.17       2.54
N      -4.02      10.29       2.07
N      -3.11      11.98       3.50
N       0.53      14.35       1.39
N       0.53      12.45       2.54
N       1.73      14.27       2.08
N       2.73      12.65       3.51
N       6.20       7.63      13.64
N       7.85       6.69      14.79
N       6.87       8.64      14.32
N       8.77       8.70      15.75
N      12.65       6.71      13.64
N      11.00       5.76      14.79
N      13.18       5.63      14.32
N      12.28       3.95      15.75
N       8.63       1.58      13.64
N       8.63       3.48      14.79
N       7.43       1.65      14.32
N       6.43       3.28      15.75
N       9.69       1.58      10.86
N       9.69       3.48       9.71
N      10.89       1.66      10.17
N      11.89       3.28       8.74
N      12.12       7.63      10.86
N      10.47       6.69       9.70
N      11.45       8.63      10.18
N       9.55       8.70       8.74
N       5.68       6.72      10.86
N       7.32       5.76       9.71
N       5.14       5.64      10.18
N       6.04       3.96       8.75
N      -0.52      14.35      23.10
N      -0.53      12.45      21.96
N      -1.73      14.27      22.42
N      -2.73      12.65      20.99
N      -2.96       8.29      23.11
N      -1.31       9.24      21.95
N      -2.29       7.29      22.42
N      -0.39       7.23      20.99
N       3.49       9.21      23.10
N       1.84      10.17      21.95
N       4.02      10.29      22.42
N       3.12      11.97      20.99
N       6.20       7.63      23.11
N       7.85       6.69      21.95
N       6.87       8.63      22.42
N       8.77       8.70      20.99
N      12.65       6.71      23.10
N      11.00       5.76      21.95
N      13.18       5.63      22.42
N      12.28       3.95      20.99
N       8.63       1.58      23.10
N       8.63       3.48      21.96
N       7.43       1.65      22.42
N       6.43       3.28      20.99
N       2.96       8.29      10.86
N       1.31       9.24       9.71
N       2.29       7.29      10.18
N       0.39       7.23       8.74
N      -3.48       9.21      10.86
N      -1.84      10.17       9.71
N      -4.02      10.29      10.17
N      -3.11      11.98       8.75
N       0.53      14.35      10.86
N       0.53      12.45       9.71
N       1.73      14.27      10.17
N       2.73      12.65       8.74
N      -0.52      14.35      13.64
N      -0.53      12.45      14.79
N      -1.73      14.27      14.32
N      -2.73      12.65      15.75
N      -2.96       8.29      13.64
N      -1.31       9.24      14.79
N      -2.29       7.29      14.32
N      -0.39       7.23      15.75
N       3.49       9.21      13.64
N       1.84      10.17      14.79
N       4.02      10.29      14.32
N       3.12      11.97      15.75
N       9.69       1.58       1.39
N       9.69       3.48       2.54
N      10.89       1.66       2.08
N      11.89       3.28       3.51
N      12.12       7.64       1.39
N      10.47       6.69       2.54
N      11.45       8.64       2.07
N       9.55       8.70       3.51
N       5.68       6.72       1.39
N       7.32       5.76       2.54
N       5.14       5.64       2.07
N       6.04       3.95       3.50
N       2.60       4.51      22.48
N       2.97       5.16       0.09
N       3.52       6.13      23.74
N       3.65       6.35      21.36
N      11.76      11.41      22.48
N      12.13      10.77       0.09
N      12.68       9.80      23.74
N      -5.51       9.58      21.36
N       3.97      15.93      22.48
N       3.23      15.93       0.09
N       2.11      15.93      23.74
N      11.02      -0.00      21.36
N       6.57      11.41      10.23
N       6.20      10.77      12.34
N       5.64       9.80      11.50
N       5.51       9.58       9.11
N      15.72       4.51      10.23
N      -2.96       5.16      12.34
N      -3.52       6.13      11.50
N      -3.65       6.35       9.11
N      -3.97      15.93      10.23
N       5.93      -0.00      12.34
N       7.05      -0.00      11.50
N      -1.85      15.93       9.11
N      13.13      -0.00      14.26
N       3.23      15.93      12.16
N       2.11      15.93      13.00
N      11.02      -0.00      15.39
N      -6.56      11.41      14.26
N      12.13      10.77      12.16
N      12.68       9.80      13.00
N      -5.51       9.58      15.38
N       2.60       4.51      14.26
N       2.97       5.16      12.16
N       3.52       6.13      13.00
N       3.65       6.35      15.39
N      -3.97      15.93       2.01
N       5.93      -0.00      24.41
N       7.05       0.00       0.75
N       7.30       0.00       3.14
N      -2.59       4.51       2.02
N      -2.96       5.15      24.41
N      -3.52       6.13       0.75
N      14.67       6.35       3.14
N       6.57      11.42       2.02
N       6.20      10.77      24.41
N       5.64       9.80       0.75
N       5.51       9.58       3.14
Cl       3.08       5.36       4.48
Cl      12.24      10.57       4.47
Cl       3.00      15.93       4.48
Cl       6.08      10.57      16.73
Cl      15.24       5.35      16.72
Cl      -3.00      15.93      16.73
Cl       3.01      15.93       7.77
Cl      12.24      10.58       7.78
Cl       3.08       5.35       7.77
Cl       6.16      -0.00      20.02
Cl      15.24       5.35      20.02
Cl       6.08      10.58      20.02
Cl       9.16      15.93      18.38
Cl       9.17      15.92       6.15
Cl       9.16      15.93       0.04
Cl       9.17      15.92      12.32
O       0.05       2.48      21.44
O       1.02       4.47      19.51
O      -0.92       4.40      22.16
O      -7.04      14.65      21.44
O      -5.81      12.80      19.50
O      -4.90      14.53      22.16
O       7.00      14.73      21.44
O       4.79      14.59      19.51
O       5.82      12.94      22.16
O       9.12      13.44       9.19
O       8.14      11.46       7.26
O      10.08      11.53       9.91
O      16.21       1.27       9.18
O      14.97       3.13       7.26
O      14.07       1.40       9.91
O       2.16       1.20       9.19
O       4.37       1.34       7.25
O       3.34       2.99       9.91
O      16.16       1.19      15.30
O      13.95       1.34      17.24
O      14.98       2.99      14.59
O       9.21      13.45      15.30
O      10.19      11.45      17.24
O       8.24      11.53      14.59
O       2.11       1.28      15.30
O       3.35       3.13      17.24
O       4.26       1.40      14.59
O      -6.99      14.73       3.05
O      -4.79      14.59       4.99
O      -5.82      12.94       2.34
O      -0.04       2.47       3.05
O      -1.02       4.47       4.99
O       0.92       4.40       2.34
O       7.05      14.65       3.06
O       5.82      12.80       4.99
O       4.91      14.53       2.34
O       9.12      13.46       3.06
O       8.14      11.46       4.99
O      10.07      11.54       2.35
O      16.21       1.27       3.05
O      14.97       3.13       4.99
O      14.06       1.40       2.34
O       2.17       1.20       3.05
O       4.37       1.34       4.99
O       3.34       3.00       2.34
O       0.05       2.48      15.30
O       1.02       4.47      17.24
O      -0.92       4.39      14.59
O      -7.05      14.65      15.30
O      -5.81      12.80      17.24
O      -4.90      14.53      14.59
O       7.00      14.73      15.30
O       4.79      14.59      17.24
O       5.82      12.93      14.59
O      -7.00      14.72       9.19
O      -4.79      14.59       7.26
O      -5.81      12.94       9.91
O      -0.05       2.48       9.18
O      -1.03       4.47       7.26
O       0.92       4.39       9.91
O       7.05      14.64       9.19
O       5.81      12.80       7.26
O       4.92      14.52       9.91
O      16.16       1.20      21.45
O      13.95       1.34      19.51
O      14.98       3.00      22.16
O       9.21      13.45      21.44
O      10.19      11.45      19.50
O       8.25      11.53      22.16
O       2.11       1.27      21.44
O       3.35       3.13      19.51
O       4.26       1.40      22.16
