342

C      -2.04      15.24       3.53
C      -2.60      14.47       2.35
C       2.24       0.23      17.23
C       3.41       0.96      16.61
C      14.17       3.25       9.66
C       6.80       8.30      17.19
C      15.24       3.15       8.61
C       5.50       0.94      15.43
C      12.06       2.57      10.60
C       4.68       2.97      16.22
C       3.13       8.32      16.79
C       7.38       5.97      16.21
C      -2.38      13.59       0.12
C       4.59       8.12      16.92
C      15.74      13.18       1.29
C       5.57       8.97      17.39
C       6.51       7.09      16.61
C      -3.87      13.89       2.39
C       4.39       0.25      15.91
C       3.55       2.34      16.75
C      13.27       4.23      11.67
C      14.29       4.16      10.72
C      13.02       2.45       9.60
C      -1.85      14.32       1.18
C      15.21       2.45       3.36
C      14.63       1.64       2.22
C      -0.38      15.14       8.51
C      -0.00      14.07       9.51
C      -0.73       3.52      17.08
C       6.14      12.63      14.62
C      -1.13       2.17      17.63
C      -0.59      12.22      10.93
C      -0.82       5.22      15.39
C       1.58      13.04      11.00
C       7.15      13.58      11.19
C       3.74      11.75      14.17
C      13.72      -0.42       1.36
C       6.56      13.20      12.49
C       8.39      -5.82      17.86
C       7.11      13.20      13.76
C       5.05      12.33      13.83
C      14.42       2.20       0.95
C      -0.95      13.13       9.95
C       1.29      14.01      10.04
C       0.45       5.60      17.29
C       0.10       4.36      17.82
C      -1.19       3.96      15.84
C      14.28       0.30       2.41
C      -1.79      -2.63      15.46
C      -2.41      -3.39      14.30
C      14.67       6.48       6.67
C      13.54       7.38       7.11
C       3.59      15.74       6.64
C      10.48      10.04      14.14
C       2.39      16.52       6.15
C      11.92       9.10       6.65
C       5.25      14.02       6.36
C      12.12       8.29       8.83
C      11.12       6.41      14.01
C      10.28      10.59      11.61
C      -4.14      -3.65      12.65
C      10.90       7.86      13.87
C      -7.89      14.12      12.71
C      10.76       8.84      14.83
C      10.48       9.73      12.79
C      -1.81      -4.55      13.78
C      12.90       8.22       6.19
C      13.13       7.41       8.45
C       5.26      15.29       8.30
C       4.17      16.03       7.88
C       4.14      14.71       5.87
C      -3.61      -2.95      13.72
C      -0.29       8.23      12.49
C      -0.88       7.48      11.31
C       9.65      15.49       8.28
C      15.50      -2.50       7.65
C      14.78       8.48       0.71
C       1.57       2.77       8.24
C       8.91       2.25      17.57
C      14.92      -0.49       6.47
C      14.69       6.27       1.65
C      17.09      -0.73       7.26
C       2.58      -0.76       7.83
C      -0.83       2.69       7.25
C      -1.78       7.45       9.07
C       2.00       0.59       7.96
C      -1.65       5.46      10.25
C       2.55       1.76       8.44
C       0.48       2.15       7.66
C      -1.09       6.10      11.35
C      14.55      -1.74       6.95
C      16.79      -1.98       7.80
C      15.96       7.89       2.71
C      15.61       8.85       1.77
C      14.31       7.16       0.65
C      -1.23       8.16      10.14
C       8.25       2.03      12.31
C       7.63       1.24      11.17
C      -0.84       9.79      17.47
C       3.50      17.11       0.55
C      -6.45      13.53       8.13
C       5.92       3.31       5.66
C      12.43      12.78       8.67
C       1.88      16.04       1.98
C      -4.79      13.91       6.43
C       2.08      18.35       2.05
C       6.55       4.54       2.24
C       5.72       0.76       5.22
C       5.89      -0.19      10.31
C       6.34       3.87       3.53
C       7.62       0.45       8.90
C       6.19       4.40       4.80
C       5.92       2.18       4.87
C       8.22       1.20       9.91
C       2.86      15.94       0.99
C       3.09      18.33       1.09
C      -4.77      15.24       8.33
C      -5.87      14.56       8.86
C      -5.90      13.21       6.88
C       6.43       0.54      11.37
C       8.00      10.84       6.50
C       7.43      10.03       5.34
C      12.27       2.61      15.63
C      -6.63       1.76      16.07
C       4.13      -5.54      15.60
C       2.24       6.78       5.18
C      -0.26      12.84      15.10
C      -4.54       0.67      15.61
C       2.02      -4.41      15.32
C      -5.36       0.64      17.78
C      -1.43       6.40       5.05
C       2.82       6.74       2.65
C       7.66       8.29       3.69
C       0.02       6.59       4.91
C       5.70       9.54       3.75
C       1.00       6.72       5.87
C       1.94       6.70       3.84
C       6.16      10.29       4.82
C      -5.64       1.37      15.15
C      -6.48       1.37      17.40
C       3.23      -4.05      17.26
C       4.25      -4.89      16.83
C       2.98      -5.29      14.83
C       8.18       9.00       4.77
H       7.80       8.65      17.43
H       6.31       0.44      14.91
H      11.16       1.96      10.62
H       4.84       4.04      16.29
H      -7.32       6.22      17.09
H      14.75      12.71       1.28
H       5.38       9.95      17.80
H      -4.49      14.01       3.28
H       4.29      -0.82      15.76
H       2.80       2.92      17.29
H      13.31       4.94      12.50
H      -4.90       4.79      10.79
H      12.90       1.74       8.79
H      -0.87      14.78       1.11
H       8.95       4.90      14.34
H       6.20      12.45      15.68
H      -1.30      11.50      11.33
H      -1.16       5.62      14.44
H       2.57      12.94      11.45
H       7.98      17.84       1.45
H       8.20      -5.43      16.86
H       8.11      13.54      14.00
H      14.70       3.23       0.76
H      -1.95      13.14       9.53
H       2.05      14.71       9.71
H       1.12       6.28      17.81
H       5.94      11.28       0.88
H      -1.84       3.31      15.25
H      14.46      -0.17       3.38
H       2.27       9.55      14.60
H      10.29      11.03      14.54
H      11.42       9.80       5.99
H       5.73      13.22       5.80
H      11.75       8.36       9.85
H      14.99      -3.36      12.18
H      -7.46      13.22      12.26
H      10.83       8.66      15.90
H      -0.90      -4.93      14.22
H      13.18       8.19       5.15
H      13.60       6.76       9.18
H       5.74      15.46       9.27
H       9.23      -2.48       8.49
H       3.69      14.45       4.91
H      -4.10      -2.07      14.13
H       8.58      11.74       9.91
H       1.63       3.83       8.47
H      14.21       0.15       5.95
H      14.35       5.23       1.66
H      -2.00      -0.28       7.34
H      -2.05       7.93       8.14
H      -1.83       4.38      10.23
H       3.54       1.85       8.85
H      -0.81       5.53      12.24
H      13.55      -2.13       6.81
H      -2.52      -2.55       8.33
H      -3.44       8.11       3.54
H      15.98       9.87       1.83
H       8.19      -0.39      17.74
H      -1.05       9.23      10.06
H      -2.29       3.91       5.38
H       5.73       3.32       6.72
H       1.38      15.16       2.38
H      -4.31      13.69       5.48
H       7.19      -0.04       2.49
H       4.95      -0.73      10.41
H       8.04       0.37       7.90
H       6.26       5.45       5.04
H       9.14       1.75       9.72
H       3.14      14.98       0.57
H       9.03      -0.06       0.76
H       1.17      -3.25       8.85
H      -6.28      14.83       9.84
H      13.73      12.41       6.29
H       5.93       0.59      12.33
H       4.01      -1.25       5.65
H       3.24       6.87       5.59
H      -3.72       0.38      14.95
H       1.12      -4.16      14.76
H       0.27       7.55       0.89
H       8.19       7.47       3.22
H       4.72       9.70       3.31
H       0.82       6.74       6.94
H       5.54      11.07       5.27
H      -5.75       1.64      14.10
H      -1.77       8.89       0.22
H       8.75       3.69       0.31
H       5.14      -5.07      17.44
H      -2.61      13.53      13.87
H       9.17       8.77       5.17
H       4.39       5.41       0.96
N      -3.60      13.02       0.17
N      12.17       3.45      11.62
N       5.65       2.28      15.58
N      13.51       0.13       0.14
N      -0.00       6.03      16.09
N       0.65      12.17      11.46
N      -3.56      -4.75      12.14
N       5.80      14.30       7.56
N      11.54       9.14       7.95
N      -2.00       6.12       9.13
N      15.51       6.62       2.66
N      16.16       0.02       6.63
N       6.48      -0.24       9.10
N      -4.23      14.92       7.13
N       1.50      17.22       2.51
N       6.44       8.56       3.19
N       2.14      -3.80      16.51
N      -4.39       0.32      16.91
O       9.31       4.05      14.66
O      -3.71       3.68       8.86
O       8.62       6.17      16.40
O       2.00      -0.93      16.76
O       2.64       9.30      17.42
O       7.10       8.08       0.25
O      -2.73      15.20       4.60
O       5.15       6.97      16.43
O       6.81       4.95      15.70
O      -0.93      15.82       3.31
O      14.93       2.51       7.55
O       2.49       7.50      16.03
O       9.12       3.47      17.82
O      12.04       2.60      14.37
O      11.45       5.99      15.16
O      11.67       3.24      16.54
O       9.40       2.52      12.09
O       7.55       2.09      13.37
O       8.38       1.77      16.51
O      10.91       5.68      12.97
O       1.35       9.81      14.83
O       4.55       9.18       0.94
O       3.59      11.46      15.40
O      -1.44      14.90       7.83
O       8.23      14.24      11.24
O       5.84      -3.16       8.47
O      15.37       3.69       3.13
O       5.30      12.66      12.52
O       2.90      11.58      13.21
O      15.46       1.80       4.41
O      -1.65       1.36      16.78
O       6.54      13.18      10.13
O       0.85      12.87      15.69
O      -0.78       8.71      16.79
O      -0.06      10.79      17.43
O      -0.14       7.56      13.56
O      -0.03       9.45      12.27
O      -0.58      12.10      14.12
O       9.07      12.25       9.25
O       7.58      -1.71       6.73
O      10.05      11.81      11.87
O      14.73       6.25       5.41
O      -4.62       6.07       7.58
O      -0.64      -3.03      15.83
O      10.73       8.39      12.61
O      10.35      10.02      10.46
O      -2.48      -1.67      15.91
O       1.76      16.01       5.16
O      12.15      12.92       9.89
O       8.60      14.95       7.80
O      10.40      15.07       9.21
O       7.30      11.83       6.88
O       9.11      10.43       6.95
O      11.80      12.06       7.83
O      -3.20       4.03       5.70
O      -0.98       3.94       7.44
O       3.67      -0.96       8.46
O       0.73       0.82       7.48
O      -1.66       1.86       6.74
O       1.98      -1.60       7.07
O      -1.92       6.62       6.20
O      -2.07       6.01       4.01
O       4.50      -2.06       5.88
O       5.48       0.54       6.45
O       6.89       5.76       2.28
O       6.17       2.51       3.56
O       5.78      -0.09       4.26
O       6.33       3.85       1.18
O       4.75       6.03       0.29
O       4.06       6.85       2.91
O       0.59       6.57       3.66
O       2.25       6.65       1.51
Zn      10.74       3.65      13.22
Zn       7.57       3.09      15.19
Zn      10.20       4.75      16.42
Zn       0.57       8.01      15.47
Zn      -2.49      16.01       6.51
Zn       0.70      -2.39      17.29
Zn       0.33      17.16       4.28
Zn      16.42       2.09       6.23
Zn       1.79      11.05      16.46
Zn      -2.78       5.07       7.46
Zn       5.64       7.40       1.60
Zn       0.91      11.03      13.24
Zn       7.55      13.30       8.34
Zn      16.09       5.29       4.26
Zn      -2.46      -0.35      17.51
Zn      10.15      13.48      10.56
Zn       5.58      -1.30       7.50
Zn      10.37      10.81       8.56
