330

C       1.54      31.50      40.29
C       1.33      30.65      41.42
C       1.22      29.24      41.34
C       1.24      28.62      40.06
C       1.42      29.43      38.89
C       1.65      30.82      39.05
C       1.56      32.94      40.41
C       0.76       0.29       0.20
C       0.57       1.69       0.36
C       0.98       2.72      40.65
C       0.91       2.11      39.37
C       0.97       0.69      39.29
C      10.02       7.09      27.72
C      10.16       7.04      29.14
C       9.90       5.85      29.88
C       9.43       4.69      29.23
C       9.33       4.70      27.81
C       9.59       5.88      27.10
C      10.27       8.27      26.92
C      10.26       9.59      27.46
C      10.32      10.74      26.64
C       0.61      10.60      25.24
C       0.62       9.31      24.66
C       0.53       8.19      25.52
C       9.98      24.07      11.57
C      10.07      24.12      10.15
C       9.82      25.31       9.41
C       9.40      26.49      10.08
C       9.35      26.48      11.49
C       9.60      25.30      12.20
C      10.22      22.89      12.36
C      10.16      21.58      11.83
C      10.22      20.42      12.64
C       0.55      20.55      14.04
C       0.61      21.85      14.61
C       0.51      22.97      13.76
C       9.38      24.05      27.69
C       9.84      24.33      29.01
C       9.25      25.34      29.82
C       8.12      26.06      29.34
C       7.66      25.80      28.03
C       8.29      24.84      27.22
C       9.87      22.99      26.88
C      10.16      21.71      27.42
C      10.32      20.58      26.58
C      10.35      20.72      25.16
C      10.12      22.00      24.59
C       9.87      23.10      25.46
C       8.97       7.13      11.59
C       9.38       6.85      10.25
C       8.73       5.87       9.46
C       7.58       5.19       9.96
C       7.18       5.45      11.30
C       7.87       6.38      12.09
C       9.53       8.17      12.40
C       9.82       9.45      11.87
C      10.04      10.56      12.73
C      10.15      10.38      14.13
C       9.91       9.09      14.69
C       9.59       8.02      13.81
C       0.62       5.35      33.54
C       0.70       5.85      34.85
C       0.74       5.00      35.99
C       0.74       3.57      35.83
C       0.71       3.06      34.48
C       0.65       3.95      33.39
C       0.78       5.66      37.32
C       0.73       1.60      34.15
C       0.53       6.22      32.42
C       0.78       2.64      36.92
C       0.44      25.79       5.74
C       0.46      25.29       4.42
C       0.48      26.14       3.28
C       0.53      27.56       3.44
C       0.56      28.08       4.78
C       0.52      27.19       5.88
C       0.47      25.47       1.95
C       0.63      29.54       5.11
C      10.31      24.92       6.86
C       0.57      28.49       2.34
C       0.76      26.25      33.14
C       1.94      26.61      33.84
C       1.90      27.30      35.08
C      10.59      27.57      35.71
C       9.39      27.20      35.01
C       9.48      26.58      33.75
C       3.21      27.61      35.74
C       8.01      27.52      35.48
C       0.82      25.59      31.89
C      10.51      28.01      37.05
C      10.08       4.92       6.11
C       1.28       4.51       5.39
C       1.20       3.81       4.16
C       9.86       3.58       3.56
C       8.69       4.00       4.26
C       8.83       4.63       5.53
C       2.48       3.44       3.48
C       7.29       3.73       3.83
C       0.24       5.58       7.36
C       9.74       3.13       2.22
C      10.28       8.10      18.16
C       9.78       9.17      18.94
C       9.96       9.24      20.34
C       0.69       8.17      21.03
C       1.20       7.08      20.24
C       1.02       7.08      18.84
C       9.33      10.40      21.04
C       1.95       5.93      20.83
C      10.04       7.94      16.78
C       0.83       8.13      22.45
C      10.42      22.97      21.12
C       9.84      21.95      20.33
C       9.99      21.91      18.93
C       0.78      22.94      18.25
C       1.36      23.98      19.05
C       1.22      23.96      20.46
C       9.27      20.80      18.22
C       2.16      25.10      18.48
C      10.23      23.08      22.52
C       0.89      23.01      16.83
C       9.39       1.49      26.20
C       0.41       0.64      25.61
C      10.36      32.54      24.97
C       8.98      32.17      24.93
C       7.99      33.01      25.52
C       8.04       1.10      26.14
C       1.49      31.69      24.38
C       6.53      32.72      25.54
C       9.81       2.63      26.87
C       8.63      31.05      24.35
C       9.56      29.69      13.10
C       0.61      30.51      13.67
C      10.25      31.73      14.31
C       8.89      32.14      14.39
C       7.85      31.34      13.83
C       8.21      30.12      13.19
C       1.42      32.55      14.88
C       6.40      31.68      13.84
C       9.92      28.54      12.42
C       8.22       0.17      14.98
C       9.54      14.36      27.23
C       8.87      15.38      26.52
C       8.95      16.74      26.88
C       9.82      17.14      27.95
C      10.41      16.11      28.75
C      10.26      14.75      28.37
C       7.98      17.64      26.17
C       1.35      16.34      29.93
C       9.50      13.05      26.71
C      10.10      18.52      28.14
C       9.35      16.81      12.11
C       8.70      15.81      12.86
C       8.75      14.45      12.51
C       9.57      14.03      11.41
C      10.14      15.04      10.56
C      10.02      16.41      10.94
C       7.83      13.56      13.28
C       1.03      14.79       9.35
C       9.35      18.13      12.61
C       9.82      12.64      11.21
H       0.60      30.85       0.87
H       0.80       0.28      38.39
H       0.71       4.30       0.12
H       0.92       4.66      39.99
H       1.49      26.81      39.13
H       1.14      26.69      40.72
H       1.83      31.35      38.20
H       1.32      32.87       1.05
H       0.58       7.84      29.65
H       0.63       7.28      25.08
H       1.28      12.50      24.89
H       1.28      11.55      23.56
H       8.64       2.81      29.47
H       8.92       3.60      30.88
H       9.38       5.85      26.10
H      10.04       9.72      28.45
H       0.46      23.31       9.63
H       0.65      23.88      14.20
H       1.19      18.64      14.38
H       1.25      19.59      15.71
H       8.67      28.40       9.85
H       8.88      27.60       8.44
H       9.43      25.34      13.20
H       9.91      21.45      10.85
H       0.70      23.81      29.38
H       9.67      24.00      25.03
H       0.86      18.77      24.73
H       0.69      19.72      23.40
H       6.73      27.51      29.78
H       7.79      27.22      31.00
H       7.87      24.63      26.31
H      10.04      21.55      28.43
H       0.24       7.35       9.86
H       9.40       7.11      14.23
H       0.74      12.31      14.59
H       0.61      11.33      15.91
H       6.13       3.79       9.56
H       7.16       4.06       8.30
H       7.49       6.59      13.02
H       9.65       9.63      10.88
H       0.69       6.86      34.98
H       0.69       3.56      32.44
H       0.77       6.75      37.26
H       1.70       5.38      37.83
H       9.86       5.37      37.90
H       1.64       1.14      34.53
H       0.69       1.39      33.07
H       9.81       1.10      34.59
H       0.62       7.24      32.53
H       0.81       1.65      36.68
H       0.41      24.27       4.29
H       0.59      27.57       6.82
H       0.43      24.38       2.01
H       1.37      25.72       1.40
H       9.53      25.79       1.39
H       1.55      29.96       4.69
H       0.64      29.74       6.18
H       9.72      30.05       4.69
H       0.41      23.91       6.74
H       0.63      29.47       2.57
H       2.84      26.38      33.41
H       8.61      26.31      33.27
H       4.07      27.27      35.16
H       3.26      27.13      36.71
H       3.30      28.69      35.86
H       7.97      28.21      36.32
H       7.50      26.60      35.77
H       7.44      27.99      34.67
H       1.70      25.22      31.53
H       9.72      27.70      37.62
H       2.20       4.69       5.80
H       7.98       4.93       6.01
H       3.36       3.74       4.05
H       2.53       3.91       2.50
H       2.53       2.35       3.36
H       7.21       3.03       3.00
H       6.81       4.67       3.53
H       6.71       3.30       4.65
H       1.14       5.90       7.70
H       8.95       3.46       1.66
H       9.25       9.90      18.46
H       1.38       6.29      18.29
H       8.76      11.05      20.37
H      10.10      11.01      21.50
H       8.63      10.05      21.80
H       2.81       6.30      21.39
H       2.33       5.23      20.08
H       1.30       5.37      21.50
H       9.12       8.33      16.37
H       1.12       7.26      22.88
H       9.29      21.23      20.81
H       1.63      24.71      21.03
H       8.68      20.17      18.88
H      10.00      20.15      17.73
H       8.59      21.22      17.48
H       2.99      24.70      17.89
H       2.60      25.76      19.23
H       1.53      25.72      17.83
H       9.27      22.76      22.86
H       1.20      23.88      16.41
H       1.40       0.90      25.65
H       7.33       1.69      26.59
H       2.48      32.12      24.50
H       1.31      31.56      23.31
H       1.49      30.71      24.85
H       6.26      31.78      25.05
H       5.62       0.41      25.04
H       6.18      32.65      26.57
H       0.80       2.67      27.20
H       8.39      30.26      23.94
H       1.59      30.22      13.60
H       7.48      29.55      12.76
H       2.40      32.09      14.73
H       1.27      32.68      15.95
H       1.07       0.42      14.40
H       6.18      32.62      14.34
H       5.84      30.89      14.35
H       6.03      31.75      12.81
H       0.90      28.47      12.06
H       8.01       0.96      15.39
H       8.29      15.12      25.71
H       0.80      14.02      28.91
H       7.01      17.16      26.07
H       8.36      17.87      25.18
H       7.79      18.57      26.71
H       1.46      17.38      30.23
H       2.35      15.95      29.72
H       0.95      15.80      30.80
H       9.03      12.91      25.82
H      10.44      18.90      29.02
H       8.16      16.09      13.69
H       0.54      17.12      10.37
H       6.88      14.06      13.48
H       8.28      13.28      14.23
H       7.57      12.65      12.73
H       1.13      13.74       9.08
H       2.03      15.18       9.52
H       0.59      15.30       8.50
H       8.91      18.28      13.52
H      10.08      12.25      10.31
N       1.22      27.26      39.95
N       1.00       4.08      40.76
N       0.82       2.90      38.25
N       0.51       2.12       1.65
N       1.31      29.00      37.60
N       0.56      28.23       1.01
N       9.03       3.58      29.92
N       0.98      11.67      24.47
N       0.67       9.17      23.31
N      10.06      11.94      27.26
N       9.01       3.61      27.12
N      10.14       5.74      31.21
N       9.01      27.61       9.39
N       0.94      19.48      14.80
N       0.69      21.98      15.97
N       9.92      19.23      12.04
N       9.08      27.58      12.19
N      10.02      25.42       8.08
N       7.50      27.01      30.10
N       0.63      19.64      24.36
N       9.91      22.06      23.25
N      10.18      19.32      27.06
N       6.68      26.41      27.53
N       9.73      25.70      31.03
N       6.91       4.27       9.21
N       0.50      11.43      14.95
N       9.82       8.98      16.05
N       9.92      11.83      12.28
N       6.19       4.87      11.82
N       9.16       5.50       8.23
