16

V       2.37       0.14       0.07
V       5.99      -0.14      -0.07
O       3.18       0.65       1.83
O       1.93      -1.71       0.76
O       3.16       1.85      -0.69
O       5.55       1.71      -0.76
O       1.95      -0.50      -1.78
C       4.40       0.78       2.35
O       4.37      -0.77      -0.35
O       0.75       0.77       0.35
C       0.76      -2.32       0.91
C       4.38       2.32      -0.91
C       0.78      -0.78      -2.35
O      -0.46      -1.85       0.69
O       5.57       0.50       1.78
O      -0.44      -0.65      -1.83
