16

V       6.77      17.90      10.41
O       8.39      17.27      10.12
O       4.77      18.82      10.83
V      10.39      18.19      10.54
C       4.74      17.23       8.13
C       8.36      18.85      12.82
O      10.81      17.54       8.70
O      10.79      16.34      11.24
C       4.74      15.75      11.44
O       7.19      18.55      12.25
O       5.98      16.20      11.17
O       9.60      19.89       9.79
O       5.96      17.39       8.64
O       9.58      18.70      12.31
O       7.17      19.75       9.71
C       8.36      20.34       9.51
