264

C       9.40       8.57      10.66
C      10.69       7.87      11.17
C       9.55       8.71       9.10
C      10.82       9.55       8.69
C      12.08       8.81       9.28
C      12.00       8.65      10.84
C      11.90      10.07      11.50
C      10.64      10.85      10.98
C      10.74      10.95       9.42
C       9.37       9.99      11.34
C       9.39      18.72      10.86
C      10.69      19.51      11.21
C       9.54      17.30      11.51
C      10.81      16.52      11.00
C      12.07      17.40      11.35
C      12.00      18.83      10.70
C      11.90      18.69       9.15
C      10.64      17.85       8.73
C      10.74      16.44       9.43
C       9.37      18.59       9.29
C       9.39      13.82       1.97
C      10.69      13.73       1.10
C       9.54      15.10       2.86
C      10.81      15.05       3.79
C      12.07      14.91       2.86
C      12.00      13.63       1.95
C      11.90      12.36       2.86
C      10.64      12.42       3.79
C      10.74      13.73       4.65
C       9.37      12.53       2.87
C       2.27       5.49      12.70
C       3.57       6.19      12.19
C       2.42       5.34      14.25
C       3.69       4.50      14.66
C       4.95       5.24      14.08
C       4.88       5.41      12.52
C       4.77       3.99      11.86
C       3.51       3.21      12.38
C       3.62       3.11      13.94
C       2.24       4.07      12.02
C       2.27      -4.66      12.50
C       3.56      -5.45      12.15
C       2.42      -3.24      11.84
C       3.69      -2.46      12.35
C       4.95      -3.34      12.01
C       4.87      -4.77      12.65
C       4.77      -4.62      14.21
C       3.51      -3.79      14.63
C       3.61      -2.38      13.93
C       2.24      -4.53      14.07
C       2.27       0.24      21.39
C       3.56       0.33      22.25
C       2.42      -1.04      20.49
C       3.69      -0.99      19.56
C       4.95      -0.85      20.50
C       4.87       0.42      21.41
C       4.78       1.70      20.50
C       3.51       1.64      19.57
C       3.61       0.33      18.71
C       2.24       1.53      20.49
C       1.05       6.30      12.33
C       0.26       8.28      11.17
C      13.18       7.89      11.38
C      13.96       5.95      12.60
C      13.52       4.85      13.30
C       1.05      -5.39      11.99
C       0.26      19.31      10.86
C      13.18      19.68      11.09
C      13.95      -4.98      12.16
C      13.52      -3.82      12.75
C       1.05       0.16      22.28
C       0.26      13.53       1.46
C      13.18      13.54       1.02
C      13.95       0.11      21.84
C      13.51       0.04      20.54
C       8.18       7.76      11.03
C       7.39       5.78      12.19
C       6.05       6.17      11.98
C       6.83       8.11      10.76
C       6.39       9.21      10.06
C       8.18      19.44      11.37
C       7.38      -5.25      12.50
C       6.05      -5.62      12.27
C       6.83      19.04      11.20
C       6.39      17.88      10.60
C       8.17      13.90       1.08
C       7.38       0.53      21.90
C       6.05       0.51      22.34
C       6.83      13.95       1.52
C       6.39      14.02       2.82
C      10.80       9.84       7.20
C       9.46      11.05       5.59
C      10.57      11.26       4.75
C      11.88       9.88       6.27
C      13.11       9.30       6.45
C      10.79      15.09      11.51
C       9.45      13.09      11.28
C      10.56      12.26      11.51
C      11.87      14.27      11.94
C      13.10      14.72      12.35
C      10.79      16.21       4.77
C       9.45      16.99       6.64
C      10.57      17.60       7.24
C      11.87      16.99       5.28
C      13.10      17.13       4.69
C       3.67       4.22      16.16
C       2.33       3.00      17.76
C       3.45       2.80      18.61
C       4.75       4.18      17.09
C       5.98       4.77      16.91
C       3.67      -1.03      11.84
C       2.32       0.97      12.07
C       3.44       1.80      11.84
C       4.75      -0.21      11.42
C       5.98      -0.65      11.01
C       3.66      -2.15      18.58
C       2.32      -2.93      16.72
C       3.44      -3.54      16.11
C       4.75      -2.92      18.07
C       5.98      -3.06      18.67
H       8.66       9.20       8.71
H       9.60       7.72       8.64
H      12.18       7.83       8.81
H      12.98       9.39       9.04
H      10.75       6.87      10.73
H      10.62       7.74      12.26
H      12.81      10.64      11.27
H      11.85       9.98      12.59
H      11.63      11.54       9.15
H       9.87      11.51       9.05
H       9.29       9.89      12.43
H       8.47      10.51      11.01
H       8.65      16.72      11.30
H       9.59      17.40      12.61
H      12.17      17.48      12.43
H      12.97      16.90      10.97
H      10.75      -7.05      12.30
H      10.62      -6.17      10.77
H      12.81      18.20       8.78
H      11.86      19.68       8.68
H      11.62      15.91       9.05
H       9.87      15.85       9.13
H       9.29      19.58       8.83
H       8.47      18.04       9.00
H       8.65      15.20       3.48
H       9.59      16.00       2.23
H      12.17      15.81       2.24
H      12.97      14.84       3.48
H      10.75      14.61       0.45
H      10.62      12.84       0.46
H      12.81      12.29       3.46
H      11.86      11.46       2.24
H      11.63      13.67       5.30
H       9.87      13.77       5.32
H       9.29      11.64       2.24
H       8.48      12.56       3.49
H       1.53       4.86      14.65
H       2.48       6.33      14.72
H       5.05       6.23      14.55
H       5.85       4.67      14.32
H       3.63       7.19      12.63
H       3.49       6.32      11.10
H       5.68       3.43      12.09
H       4.73       4.09      10.77
H       4.50       2.51      14.21
H       2.74       2.55      14.31
H       2.16       4.17      10.93
H       1.35       3.55      12.35
H       1.52      -2.66      12.06
H       2.47      -3.34      10.75
H       5.05      -3.43      10.92
H       5.85      -2.84      12.38
H       3.62      -5.57      11.06
H       3.49      -6.46      12.59
H       5.68      -4.14      14.58
H       4.73      -5.61      14.68
H       4.50      -1.85      14.30
H       2.74      -1.79      14.22
H       2.16      -5.52      14.53
H       1.35      -3.98      14.35
H       1.52      -1.14      19.88
H       2.46      -1.94      21.13
H       5.04      -1.75      21.12
H       5.84      -0.78      19.88
H       3.62      -0.55      22.91
H       3.49       1.22      22.90
H       5.68       1.77      19.90
H       4.73       2.60      21.12
H       4.50       0.39      18.06
H       2.74       0.29      18.04
H       2.17       2.42      21.12
H       1.35       1.50      19.87
H       0.51       9.12      10.65
H      12.55       3.27      12.99
H       0.51      18.43      10.39
H      12.53      -3.31      14.27
H       0.51      13.57       2.45
H      12.55       1.10      19.31
H       7.64       4.94      12.71
H       5.42      10.79      10.36
H       7.64      -4.37      12.96
H       5.40      17.37       9.08
H       7.64       0.49      20.91
H       5.42      12.97       4.05
H       8.57      11.54       5.46
H      13.94       7.64       6.17
H       8.57      12.73      10.91
H      13.92      15.27      13.95
H       8.57      16.85       7.13
H      13.92      18.19       3.36
H       1.45       2.52      17.89
H       6.78       6.44      17.23
H       1.44       1.32      12.44
H       6.82      -1.26       9.44
H       1.44      -2.78      16.23
H       6.79      -4.13      19.99
N       1.23       7.46      11.64
N      12.99       6.75      12.10
N       1.23      20.12      11.33
N      12.99      -5.81      11.71
N       1.23      13.53       0.52
N      12.99       0.14      22.79
N       8.36       6.60      11.72
N       5.87       7.31      11.26
N       8.36      -6.06      12.03
N       5.86      19.87      11.64
N       8.36       0.53      22.84
N       5.86      13.92       0.57
N       9.65      10.42       6.77
N      11.72      10.63       5.14
N       9.64      14.42      11.22
N      11.71      12.91      11.86
N       9.64      16.29       5.50
N      11.72      17.58       6.50
N       2.52       3.64      16.59
N       4.59       3.43      18.22
N       2.51      -0.36      12.12
N       4.59       1.15      11.50
N       2.51      -2.23      17.86
N       4.59      -3.52      16.85
O      13.11       5.06      14.43
O      12.95       3.97      12.64
O      13.09      -2.96      11.99
O      12.95      -3.96      13.84
O      13.10      -1.05      20.16
O      12.95       1.05      20.10
O       5.98       9.00       8.92
O       5.83      10.09      10.72
O       5.96      17.02      11.37
O       5.82      18.02       9.51
O       5.97      15.11       3.20
O       5.82      13.01       3.26
O      14.10      10.00       6.31
O      13.19       8.10       6.18
O      14.10      14.23      11.82
O      13.17      15.06      13.54
O      14.11      16.92       5.36
O      13.16      17.94       3.76
O       6.98       4.07      17.07
O       6.03       5.97      17.21
O       6.98      -0.17      11.54
O       6.06      -1.04       9.84
O       6.98      -2.86      17.99
O       6.04      -3.88      19.59
