53

Cd       3.34       7.37      11.54
Cd       4.04      11.71      10.01
Cd       3.56       8.09       7.11
Cd       4.28      13.47      13.84
Cd       3.06       5.62      15.38
Cd       4.56      14.13      18.26
C       1.51       7.76       8.95
C       0.48       7.51       9.97
C       6.36       7.15      11.66
C       5.54       9.61       8.23
C       6.64      10.38       8.84
C       3.36       8.47      17.19
C       3.31       8.77      15.76
C       3.41       9.63      13.73
C       3.61      10.40      12.51
C       2.49      13.77      16.44
C       1.44      13.52      15.45
C       7.33      13.24      13.74
C       4.56       3.50      17.16
C       5.66       4.26      16.54
C       2.33       2.42       8.19
C       2.28       2.71       9.63
C       2.37       3.56      11.66
C       2.58       4.32      12.88
N       0.86       7.28      11.25
N      -0.28       7.13      11.94
N       6.36      11.21       9.88
N       7.52      11.71      10.30
N       3.12       7.77      14.85
N       3.17       8.29      13.62
N       1.82      13.33      14.16
N       0.68      13.20      13.47
N       5.38       5.10      15.52
N       6.54       5.60      15.10
N       2.11       1.70      10.53
N       2.15       2.22      11.76
O       2.69       7.28       9.15
O       5.45       7.23      10.77
O       5.81       8.59       7.53
O       4.34      10.00       8.47
O       3.44       9.44      18.01
O       3.35       7.23      17.57
O       4.06      11.59      12.56
O       3.38       9.84      11.37
O       2.24      14.46      17.48
O       3.67      13.31      16.21
O       6.40      13.38      14.61
O       4.82       2.48      17.87
O       3.36       3.90      16.93
O       4.37      15.50      20.09
O       4.34      13.29      20.50
O       3.07       5.50      12.84
O       2.32       3.77      14.02
