28

H       0.35       5.65       1.43
H      -0.36      10.35       0.72
H       1.00      10.14      -0.38
H       1.28      10.82       1.24
H       2.92       5.11       2.42
H       2.08       5.57       3.90
H       3.54       6.45       3.41
H       5.34      10.39       0.37
H       3.62      10.75       0.13
H       4.19       9.07       0.04
H       3.04       9.00       6.15
H       2.47       7.63       5.17
H       1.56       9.14       5.18
H       5.77      10.84       2.84
C       0.94       8.72       1.22
C       2.00       8.32       2.07
C       1.82       6.95       2.28
C       0.69      10.08       0.67
C       2.63       5.97       3.04
C       4.08       9.83       2.02
C       3.07       9.12       2.68
C       3.38       9.23       4.06
N       0.15       7.66       0.93
N       0.70       6.60       1.60
C       4.33      10.03       0.57
N       4.90      10.31       2.99
N       4.51       9.95       4.25
C       2.57       8.72       5.20
