28

H       3.33       1.59      11.13
H       4.05      -3.11      11.84
H       2.69      -2.89      12.94
H       2.41      -3.57      11.32
H       0.76       2.13      10.14
H       1.61       1.68       8.66
H       0.15       0.79       9.14
H      -1.65      -3.15      12.19
H       0.07      -3.50      12.42
H      -0.50      -1.82      12.52
H       0.65      -1.76       6.41
H       1.22      -0.39       7.38
H       2.13      -1.90       7.38
H      -2.08      -3.59       9.72
C       2.74      -1.47      11.34
C       1.68      -1.07      10.48
C       1.86       0.30      10.28
N       2.99       0.64      10.96
C       1.06       1.28       9.52
N       3.54      -0.41      11.62
C       0.61      -1.87       9.88
C       2.99      -2.83      11.89
C      -0.40      -2.58      10.54
C       0.31      -1.99       8.49
C      -0.64      -2.78      11.99
N      -1.22      -3.06       9.57
N      -0.82      -2.70       8.31
C       1.12      -1.48       7.35
