28

C       4.00       0.89       6.59
C       3.04      -1.74       4.16
C       4.81       1.62       7.60
H       3.84      -1.06       8.68
H       4.45      -2.60       9.34
H       4.34       2.57       7.84
H       5.81       1.82       7.21
H       5.30      -1.09       9.68
H       1.60       0.63       4.59
H       7.02      -3.19       8.37
H       7.73      -1.45       3.95
N       7.22      -2.62       6.39
N       6.67      -2.57       7.63
H       6.36      -2.51       3.58
H       6.09      -0.77       3.81
N       2.86       1.41       6.06
N       2.47       0.50       5.12
H       2.03      -1.73       3.74
H       3.18      -2.68       4.71
H       3.75      -1.76       3.31
H       4.93       1.04       8.52
C       6.43      -1.84       5.61
C       5.37      -1.30       6.39
C       5.55      -1.81       7.68
C       6.67      -1.63       4.16
C       4.74      -1.63       8.91
C       3.29      -0.58       5.06
C       4.30      -0.37       6.00
