28

H      -0.35       1.59       5.61
H       0.37       4.56       9.31
H      -1.00       5.40       8.59
H      -1.27       4.33       9.99
H      -2.92       0.46       5.64
H      -2.07      -0.59       6.77
C      -0.94       3.31       8.15
C      -2.00       2.36       8.24
C      -1.82       1.50       7.15
C      -0.69       4.46       9.06
C      -2.63       0.35       6.69
C      -4.08       3.16       9.52
C      -3.07       2.24       9.24
C      -3.37       1.10      10.03
H      -3.53       0.27       7.30
C      -4.32       4.52       8.96
H      -5.33       4.89       9.18
H      -3.61       5.26       9.37
H      -4.18       4.50       7.87
H      -5.76       2.96      10.81
C      -2.56      -0.14      10.16
H      -1.55       0.09      10.52
H      -3.03      -0.83      10.87
H      -2.45      -0.66       9.20
N      -0.14       3.02       7.10
N      -0.70       1.92       6.52
N      -4.50       1.29      10.74
N      -4.90       2.57      10.43
