26

C       7.46       3.42       2.66
C       8.41       4.42       2.78
C       8.14       5.58       3.50
C       6.91       5.77       4.11
C       5.98       4.75       4.01
O       6.77       1.42       1.57
O       8.89       2.10       1.34
H       9.24       4.32       2.36
H       8.80       6.23       3.58
H       5.15       4.85       4.43
H       5.60       2.91       3.27
H       4.69       7.21       4.25
H       4.14       9.02       5.57
H       7.89       9.14       6.97
H       8.42       7.30       5.70
O       4.35      10.58       7.52
O       6.49      11.15       7.78
C       6.24       3.58       3.31
C       6.61       7.02       4.86
C       5.33       7.58       4.82
C       7.55       7.64       5.67
C       7.73       2.21       1.78
C       5.58      10.44       7.32
C       5.00       8.68       5.60
C       5.96       9.28       6.42
C       7.23       8.74       6.44
