26

C       3.28       2.84      18.22
C       4.23       3.46      19.01
C       4.27       4.84      19.12
C       3.35       5.64      18.43
C       2.44       5.00      17.60
C       2.38       3.61      17.51
C       3.18       1.36      18.21
O       2.61      12.11      18.25
O       4.56      11.98      19.26
C       3.44       9.93      18.79
H       1.86       9.82      17.55
H       1.81       7.53      17.37
H       4.86       7.26      19.92
H       4.98       9.56      20.04
C       2.49       9.31      18.01
C       2.45       7.93      17.90
O       4.11       0.67      18.77
O       2.16       0.80      17.75
C       3.37       7.13      18.58
C       4.28       7.77      19.41
C       4.34       9.16      19.50
C       3.54      11.42      18.80
H       4.86       2.95      19.47
H       4.92       5.25      19.65
H       1.86       5.51      17.09
H       1.74       3.21      16.97
