18

C       5.02       6.09      10.99
C       6.08       4.18      12.22
H       5.30       7.00       7.71
C       5.85       4.97      10.98
O       3.41       8.46      10.88
O       6.55       3.01      12.20
C       3.93       7.98       9.82
C       4.82       6.81       9.81
H       4.51       6.39      11.91
C       6.50       4.58       9.80
H       7.15       3.71       9.80
O       5.85       4.73      13.38
C       5.46       6.43       8.62
C       6.99       4.87       7.38
C       6.30       5.31       8.62
O       3.59       8.63       8.78
O       7.98       4.09       7.40
O       6.53       5.25       6.22
