18

C      11.50       7.13       4.91
C      12.62       7.97       4.91
O      15.03       8.05       5.09
O      14.13       6.14       4.54
O       7.90       7.34       4.68
H       9.05       9.50       4.91
H      11.63       6.05       4.91
H      13.33      10.02       4.91
C      12.46       9.37       4.91
C       9.02       6.78       4.91
C      10.21       7.68       4.91
C      10.97      11.37       4.97
C      10.05       9.07       4.91
C      11.17       9.91       4.92
O      11.92      12.20       4.75
O       9.82      11.87       5.27
O       9.25       5.55       5.15
C      13.96       7.37       4.85
