60

H       2.85       5.38      14.77
H       6.61       5.20      14.79
H       2.53       3.66      14.56
H       2.90       5.21      17.01
H       2.19       2.36      16.51
H       0.16       2.97      17.51
H       0.45       4.15      16.19
H       0.81       4.59      17.91
H       6.16       2.40      16.88
H       4.66       0.50      16.31
H       4.19      -0.19      18.36
H       3.59       1.41      18.83
H       5.39       1.09      18.76
H       3.37       1.59      14.63
H       3.59       1.95      12.30
H       4.22       0.31      12.69
H       5.37       1.66      12.39
H       6.85       3.01      13.60
H       7.01       0.78      15.61
H       8.30       1.34      14.50
H       6.84       0.54      13.83
H       6.37       6.06      18.41
H       4.87       7.91      18.40
H       3.93       6.42      18.73
H       3.92       7.18      17.08
H       6.66       4.51      16.87
H       5.75       7.34      15.50
H       4.96       8.29      13.65
H       4.00       6.85      13.23
H       5.81       6.84      13.00
C       3.23       4.37      15.05
C       4.68       4.19      14.52
C       5.58       5.29      15.21
C       5.66       4.98      16.74
C       4.69       4.35      13.06
C       4.59       3.81      18.62
C       4.59       3.80      19.82
C       4.60       3.78      21.24
C       4.73       4.61      10.45
C       3.18       4.23      16.60
C       5.12       2.53      16.50
C       5.18       2.71      14.91
C       4.72       4.48      11.87
C       4.61       3.87      17.16
C       0.83       3.78      17.16
C       4.40       0.90      18.28
C       4.39       1.40      12.83
C       7.20       1.23      14.61
C       4.54       6.94      17.96
C       4.98       7.18      13.64
N       2.17       3.26      17.01
N       4.40       1.31      16.89
N       4.33       1.69      14.25
N       6.58       2.54      14.48
N       5.72       6.16      17.62
N       5.15       6.68      14.99
O       3.45       3.76      21.85
O       5.74       3.76      21.85
O       3.59       4.66       9.83
O       5.88       4.66       9.83
