16

Tb       8.85       3.46       0.14
O       8.63       5.10      -1.52
C       8.46       5.83      -2.55
O      10.37       1.97       1.19
O       6.53       3.82      -0.19
O      10.68       2.97      -1.40
O       7.61       1.34       0.61
O       8.12       1.79      -1.47
C      10.82       6.17       0.67
O       8.27       3.75       2.46
C       5.74       4.69      -0.67
N      10.25       1.41       2.38
N      11.93       3.36      -1.29
N       7.51       1.01      -0.63
C       8.10       5.01       2.55
O      10.58       4.93       0.87
