17

Na       1.48       6.25       1.03
S      -0.06      11.29      -2.56
O       3.33       6.82      -2.86
O       0.13       7.84      -3.42
Na       1.54       7.98      -1.81
C       0.94       4.56      -1.92
Zn       3.78       5.92      -1.01
O      -0.05       5.26       2.17
O       3.38       4.89       0.74
C      -1.07       4.64       1.81
O       1.61       5.39      -1.19
O       4.83       4.59      -1.99
O       0.78      10.32      -1.85
O      -0.44       7.59      -0.15
C      -1.31       8.43       0.32
O       2.61       8.20       0.33
C       4.16       7.39      -3.69
