116

Cu       7.02       9.20       3.62
Cu       7.03       9.20       6.23
Cu       1.84       1.79      12.52
Cu       1.83       1.79       9.91
H       5.20       9.71       1.17
H       3.28       9.79      14.80
H       7.31       8.26      15.22
H       9.06       8.30       1.55
H       2.85       9.19       7.06
H       0.34       9.16       7.09
H       2.80       9.27       2.77
H       0.29       9.25       2.80
H       7.03       2.45       7.03
H       7.53       8.88      13.16
H       7.07       5.01       2.77
H       7.10       2.51       2.73
H       4.54       9.25      10.76
H       4.50       9.35      12.82
H       7.01       4.95       7.07
H       8.97       9.10       8.65
H       8.86       9.00      11.14
H       4.86       9.36       8.31
H       3.66       1.28      14.97
H       5.58       1.20       1.33
H       1.55       2.73       0.92
H      -0.20       2.69      14.59
H       6.02       1.80       9.08
H       8.52       1.82       9.04
H       6.06       1.72      13.37
H       8.57       1.73      13.34
H       1.84       8.54       9.11
H       1.33       2.11       2.97
H       1.79       5.97      13.36
H       1.76       8.48      13.40
H       4.32       1.74       5.38
H       4.36       1.64       3.32
H       1.86       6.04       9.07
H      -0.11       1.89       7.49
H       0.01       1.99       4.99
H       4.00       1.63       7.83
C       6.11       9.40       0.66
C       4.13       9.45      15.41
C       5.33       9.06      14.79
C       6.37       8.62      15.63
C       8.27       8.61       0.87
C       2.28       9.19       6.13
C       2.97       9.22       4.91
C       0.89       9.18       6.15
C       7.02       6.63       4.94
C       7.03       5.13       4.92
C       2.25       9.24       3.71
C       0.17       9.20       4.95
C       0.86       9.23       3.73
C       9.58       9.19       4.96
C       7.04       3.02       6.10
C       7.06       2.33       4.88
C       6.58       9.03      12.64
C       7.06       4.44       3.70
C       7.04       0.83       4.87
C       4.46       9.23       4.89
C       7.08       3.05       3.68
C       5.55       9.22      10.35
C       5.44       9.14      13.34
C       7.03       4.41       6.12
C       8.02       9.14       9.17
C       7.94       9.08      10.56
C       6.68       9.12      11.19
C       5.72       9.28       8.98
C       2.75       1.59      15.48
C       4.74       1.54       0.73
C       3.53       1.93       1.35
C       2.49       2.36       0.51
C       0.60       2.38      15.27
C       6.58       1.80      10.00
C       5.89       1.77      11.22
C       7.97       1.81       9.99
C       1.84       4.36      11.20
C       1.83       5.86      11.22
C       6.61       1.75      12.43
C       8.69       1.79      11.19
C       8.00       1.76      12.41
C      -0.72       1.80      11.18
C       1.82       7.97      10.04
C       1.80       8.66      11.26
C       2.28       1.96       3.50
C       1.80       6.55      12.44
C       1.82      10.16      11.27
C       4.40       1.76      11.25
C       1.79       7.94      12.46
C       3.31       1.76       5.78
C       3.42       1.85       2.80
C       1.84       6.58      10.01
C       0.85       1.85       6.97
C       0.92       1.91       5.58
C       2.18       1.87       4.95
C       3.14       1.71       7.15
N       6.93       9.23       8.39
N       7.13       9.03       1.45
N       1.93       1.75       7.75
N       1.73       1.96      14.68
O       9.02       9.15       6.10
O       7.04       7.21       3.80
O       6.98       7.19       6.08
O       6.97       0.26       3.73
O       9.01       9.23       3.83
O       7.08       0.25       6.00
O       5.03       9.21       3.75
O       5.05       9.24       6.02
O      -0.15       1.84      10.04
O       1.82       3.78      12.34
O       1.88       3.79      10.06
O       1.89      10.73      12.41
O      -0.14       1.76      12.31
O       1.78      10.74      10.14
O       3.83       1.77      12.39
O       3.81       1.75      10.12
