14

C      17.20      13.44      13.04
N      17.93      12.31      13.11
N      17.93      14.57      13.11
H      20.45      10.92      13.32
H      22.58      12.21      13.45
H      16.13      13.44      12.91
C      19.25      14.15      13.23
C      20.45      14.88      13.31
C      21.63      14.15      13.39
C      19.26      12.73      13.23
C      20.45      12.01      13.31
C      21.64      12.74      13.39
H      20.45      15.97      13.32
H      22.58      14.68      13.45
