10

N       8.39       4.85      14.03
C       9.10       3.69      14.20
C       9.10       3.00      12.99
O       6.93       5.73      10.93
C       7.99       4.82      12.74
N       7.23       5.86      12.14
N       8.39       3.72      12.07
H       9.54       3.44      15.15
O       6.93       6.84      12.85
H       9.54       2.04      12.73
