14

C       9.09      -2.45       5.43
N      10.10      -5.63       7.89
H      10.83      -5.40       5.11
H      10.14      -3.39       3.79
C       9.86      -4.67       6.91
C      10.25      -4.60       5.56
C       9.85      -3.48       4.84
H       8.81      -1.59       4.83
H       8.11      -1.71       7.23
H       9.47      -5.72       9.93
C       9.08      -3.64       7.50
C       8.69      -2.51       6.77
N       8.84      -4.00       8.82
C       9.47      -5.18       8.99
