10

H      15.60      17.46      15.56
N      14.20      15.60      11.69
C      13.51      17.11      14.81
H      12.81      17.47      15.55
N      15.34      16.55      13.64
C      14.20      16.23      12.97
N      13.07      16.56      13.63
O      15.30      15.33      11.18
O      13.09      15.34      11.18
C      14.90      17.11      14.81
