10

O      12.00      20.29      10.44
H       9.41      15.48      10.55
N      10.55      18.29       9.25
H       9.40      16.88       8.13
C       9.85      17.13       9.08
N      10.55      17.16      11.21
C      10.95      18.26      10.54
O      12.00      19.17      12.36
N      11.71      19.30      11.15
C       9.85      16.43      10.29
