10

H       3.34       4.75      22.90
C       4.74       3.12      20.54
H       6.13       4.74      22.91
O       3.64       2.02      18.86
O       5.85       2.02      18.88
C       4.04       4.28      22.22
N       3.61       3.54      21.15
C       5.43       4.28      22.22
N       5.87       3.54      21.15
N       4.74       2.33      19.36
