17

C       1.46       5.20       4.54
H       0.21       2.84       7.36
H       0.01       2.16       4.97
S       0.92       3.43       2.52
O       2.33       7.20       7.47
C       1.58       5.60       5.88
O       1.28       5.04       8.21
C       1.16       4.71       6.91
O      -0.16       2.43       2.38
C       0.58       3.48       6.56
O       2.27       2.82       2.32
C       0.46       3.12       5.23
O       0.72       4.65       1.69
C       0.91       3.97       4.21
O       2.43       7.73       5.27
C       2.14       6.91       6.24
H       1.82       5.86       3.76
