388

Zn       4.30       1.31      23.56
Zn       7.21       1.31      12.63
Zn       4.32       7.85       0.56
Zn       7.22       7.85      11.50
Zn       7.22      16.99       0.57
Zn       4.31      16.99      11.49
Zn       7.21      10.46      23.56
Zn       4.31      10.46      12.63
Zn      11.54       4.50       6.04
Zn      -0.01       4.66      18.10
Zn      -0.01      13.80      18.09
Zn      -0.00      13.65       6.04
H       5.55       3.74       1.04
H       8.16       6.04       3.55
H       8.49       1.76       3.50
H       3.11       0.16       1.97
H       1.41      17.77       3.65
H      10.57       0.06       3.38
H       9.77       1.32       1.41
H       0.31       2.71      20.55
H       3.26       4.45      23.17
H       3.62       6.23      21.47
H       2.21       6.18      19.37
H       9.62       2.38      23.57
H      10.35       2.72      22.02
H      11.20       4.93      22.87
H       9.44       4.80      22.92
H       5.99       3.74      11.02
H       3.38       6.04       8.52
H       3.05       1.76       8.57
H       8.43       0.16      10.10
H      10.13      17.77       8.41
H       0.97       0.06       8.68
H       1.77       1.33      10.65
H      11.21       2.71      15.64
H       8.26       4.45      13.01
H       7.90       6.23      14.72
H       9.31       6.18      16.82
H       1.90       2.38      12.62
H       1.17       2.72      14.17
H       0.32       4.93      13.32
H       2.07       4.80      13.27
H       5.51       5.41      23.05
H       8.12       3.13      20.52
H       8.48       7.41      20.64
H       3.08       9.00      22.16
H       1.39       9.68      20.47
H      10.54       9.08      20.74
H       9.75       7.83      22.72
H       0.33       6.44       3.58
H       3.28       4.70       0.95
H       3.64       2.92       2.66
H       2.23       2.97       4.76
H       9.64       6.77       0.56
H      10.38       6.43       2.11
H      11.22       4.22       1.25
H       9.47       4.35       1.21
H       6.01       5.41      13.14
H       3.40       3.13      15.67
H       3.04       7.41      15.55
H       8.44       9.00      14.03
H      10.13       9.68      15.72
H       0.97       9.08      15.45
H       1.77       7.83      13.47
H      11.21       6.44       8.48
H       8.26       4.70      11.11
H       7.90       2.92       9.40
H       9.31       2.97       7.31
H       1.90       6.77      11.50
H       1.16       6.43       9.95
H       0.32       4.22      10.81
H       2.07       4.35      10.85
H       5.98      14.57      23.08
H       3.37      12.26      20.58
H       3.04      16.55      20.63
H       8.42      18.15      22.16
H      10.12       0.53      20.47
H       0.96      18.24      20.74
H       1.76      16.98      22.72
H      11.22      15.59       3.58
H       8.27      13.85       0.95
H       7.91      12.07       2.66
H       9.32      12.12       4.75
H       1.91      15.92       0.55
H       1.18      15.58       2.11
H       0.33      13.37       1.25
H       2.08      13.51       1.21
H       5.54      14.57      13.11
H       8.15      12.26      15.61
H       8.48      16.55      15.56
H       3.10      18.15      14.03
H       1.40       0.53      15.72
H      10.56      18.24      15.45
H       9.76      16.98      13.47
H       0.32      15.59       8.48
H       3.27      13.85      11.11
H       3.63      12.07       9.41
H       2.22      12.12       7.31
H       9.63      15.92      11.51
H      10.36      15.58       9.96
H      11.21      13.37      10.81
H       9.45      13.51      10.85
H       6.02      12.89       1.08
H       3.41      15.18       3.60
H       3.05      10.89       3.48
H       8.45       9.30       1.96
H      10.14       8.62       3.65
H       0.98       9.22       3.38
H       1.78      10.48       1.40
H      11.20      11.86      20.55
H       8.25      13.61      23.17
H       7.89      15.38      21.46
H       9.30      15.33      19.37
H       1.89      11.53      23.56
H       1.15      11.88      22.02
H       0.31      14.08      22.88
H       2.06      13.95      22.92
H       5.52      12.89      10.99
H       8.13      15.18       8.46
H       8.49      10.89       8.58
H       3.09       9.30      10.10
H       1.40       8.62       8.41
H      10.55       9.22       8.68
H       9.76      10.48      10.66
H       0.32      11.86      15.64
H       3.27      13.61      13.01
H       3.63      15.38      14.72
H       2.22      15.33      16.82
H       9.63      11.53      12.63
H      10.37      11.88      14.17
H      11.21      14.08      13.31
H       9.46      13.95      13.27
C       6.50       1.32       1.59
C       6.95       2.60       2.22
C       6.33       3.79       1.79
C       6.78       5.03       2.25
C       7.81       5.08       3.19
C       8.42       3.91       3.64
C       8.00       2.66       3.16
C       9.57       4.07       4.58
C       6.20       6.30       1.75
C       1.62       1.22       0.77
C       2.06       0.44       1.85
C       1.10       0.04       2.78
C      11.28       0.38       2.63
C      10.83       1.11       1.53
C       0.25       1.53       0.62
C       1.42       2.48      23.11
C       1.74       3.44      22.03
C       1.05       3.47      20.81
C       2.69       4.45      22.25
C       2.89       5.44      21.30
C       2.13       5.41      20.14
C      10.44       2.92      23.09
C      10.37       4.42      23.38
C       5.04       1.32      10.47
C       4.59       2.60       9.84
C       5.20       3.79      10.27
C       4.76       5.03       9.81
C       3.73       5.08       8.88
C       3.12       3.91       8.42
C       3.54       2.66       8.91
C       1.97       4.07       7.48
C       5.34       6.30      10.31
C       9.92       1.22      11.29
C       9.48       0.44      10.21
C      10.44       0.04       9.28
C       0.25       0.38       9.43
C       0.71       1.11      10.53
C      11.29       1.53      11.45
C      10.10       2.48      13.08
C       9.78       3.44      14.16
C      10.47       3.47      15.38
C       8.83       4.45      13.93
C       8.63       5.44      14.89
C       9.39       5.41      16.05
C       1.07       2.92      13.10
C       1.15       4.42      12.81
C       6.48       7.83      22.53
C       6.93       6.55      21.90
C       6.30       5.37      22.31
C       6.74       4.13      21.82
C       7.78       4.09      20.90
C       8.40       5.26      20.46
C       7.98       6.50      20.97
C       9.56       5.11      19.54
C       6.15       2.85      22.30
C       1.59       7.94      23.35
C       2.04       8.72      22.27
C       1.07       9.11      21.34
C      11.26       8.77      21.50
C      10.80       8.04      22.60
C       0.22       7.62      23.51
C       1.44       6.67       1.02
C       1.76       5.72       2.10
C       1.06       5.69       3.32
C       2.71       4.71       1.87
C       2.91       3.72       2.83
C       2.15       3.74       3.99
C      10.46       6.23       1.04
C      10.39       4.73       0.75
C       5.04       7.83      13.65
C       4.59       6.55      14.29
C       5.21       5.37      13.88
C       4.78       4.13      14.37
C       3.74       4.09      15.29
C       3.12       5.26      15.72
C       3.54       6.50      15.22
C       1.96       5.11      16.65
C       5.37       2.85      13.89
C       9.92       7.94      12.84
C       9.48       8.72      13.92
C      10.44       9.11      14.85
C       0.26       8.77      14.69
C       0.71       8.04      13.59
C      11.29       7.62      12.68
C      10.10       6.67      11.05
C       9.78       5.72       9.96
C      10.47       5.69       8.74
C       8.83       4.71      10.19
C       8.63       3.72       9.23
C       9.39       3.74       8.07
C       1.07       6.23      11.03
C       1.15       4.73      11.32
C       5.03      16.98      22.54
C       4.58      15.70      21.90
C       5.19      14.52      22.34
C       4.75      13.28      21.87
C       3.72      13.22      20.94
C       3.11      14.39      20.48
C       3.53      15.64      20.97
C       1.96      14.23      19.55
C       5.33      12.00      22.37
C       9.91      17.09      23.35
C       9.47      17.87      22.27
C      10.43      18.26      21.34
C       0.24      17.92      21.50
C       0.70      17.20      22.59
C      11.28      16.77      23.51
C      10.11      15.82       1.02
C       9.79      14.87       2.10
C      10.48      14.83       3.32
C       8.84      13.86       1.87
C       8.64      12.87       2.83
C       9.40      12.89       3.99
C       1.08      15.38       1.03
C       1.16      13.88       0.75
C       6.49      16.98      13.65
C       6.94      15.70      14.28
C       6.32      14.52      13.85
C       6.77      13.28      14.32
C       7.80      13.22      15.25
C       8.41      14.39      15.71
C       7.99      15.64      15.22
C       9.56      14.23      16.64
C       6.19      12.00      13.82
C       1.61      17.09      12.84
C       2.05      17.87      13.92
C       1.09      18.26      14.85
C      11.27      17.92      14.69
C      10.82      17.20      13.59
C       0.24      16.77      12.68
C       1.43      15.82      11.05
C       1.75      14.87       9.97
C       1.06      14.83       8.74
C       2.70      13.86      10.19
C       2.90      12.87       9.24
C       2.14      12.89       8.08
C      10.45      15.38      11.03
C      10.38      13.88      11.32
C       5.05      10.47       1.59
C       4.60      11.75       2.23
C       5.22      12.94       1.82
C       4.79      14.17       2.30
C       3.75      14.22       3.23
C       3.13      13.04       3.66
C       3.55      11.80       3.16
C       1.97      13.19       4.59
C       5.38      15.45       1.83
C       9.93      10.37       0.77
C       9.49       9.59       1.85
C      10.45       9.20       2.78
C       0.27       9.53       2.63
C       0.72      10.26       1.53
C      11.30      10.68       0.61
C      10.09      11.63      23.11
C       9.77      12.59      22.03
C      10.46      12.62      20.81
C       8.82      13.60      22.25
C       8.62      14.59      21.30
C       9.38      14.56      20.14
C       1.06      12.07      23.09
C       1.14      13.57      23.38
C       6.49      10.47      10.47
C       6.94      11.75       9.83
C       6.31      12.94      10.25
C       6.75      14.17       9.76
C       7.79      14.22       8.83
C       8.41      13.04       8.40
C       7.99      11.80       8.91
C       9.57      13.19       7.47
C       6.16      15.45      10.24
C       1.60      10.37      11.29
C       2.05       9.59      10.21
C       1.09       9.20       9.28
C      11.27       9.53       9.43
C      10.81      10.26      10.53
C       0.23      10.68      11.45
C       1.43      11.63      13.08
C       1.75      12.59      14.16
C       1.05      12.62      15.38
C       2.70      13.60      13.93
C       2.90      14.59      14.89
C       2.14      14.56      16.05
C      10.45      12.07      13.10
C      10.38      13.57      12.81
N       2.32       1.82      23.87
N       0.14       2.31      23.59
N       1.23       4.44      19.89
N       9.20       1.82      12.32
N      11.38       2.31      12.60
N      10.29       4.44      16.30
N       2.33       7.33       0.25
N       0.16       6.85       0.54
N       1.24       4.71       4.24
N       9.20       7.33      11.81
N      11.38       6.85      11.53
N      10.29       4.71       7.83
N       9.21      16.48       0.25
N      11.39      16.00       0.54
N      10.30      13.86       4.23
N       2.33      16.48      11.81
N       0.15      16.00      11.53
N       1.24      13.86       7.83
N       9.19      10.97      23.87
N      11.37      11.46      23.59
N      10.28      13.59      19.89
N       2.32      10.97      12.32
N       0.15      11.46      12.60
N       1.24      13.59      16.30
O       5.29       1.22       1.20
O       7.40       0.41       1.48
O       9.97       5.27       4.83
O      10.15       3.06       5.09
O       6.80       7.38       1.86
O       5.02       6.16       1.21
O       6.25       1.22      10.86
O       4.14       0.41      10.59
O       1.57       5.27       7.24
O       1.39       3.06       6.98
O       4.74       7.39      10.20
O       6.52       6.16      10.86
O       5.27       7.93      22.92
O       7.38       8.74      22.65
O       9.96       3.92      19.29
O      10.14       6.13      19.03
O       6.72       1.76      22.12
O       5.00       2.99      22.92
O       6.25       7.93      13.27
O       4.14       8.74      13.54
O       1.56       3.92      16.89
O       1.38       6.13      17.15
O       4.80       1.76      14.07
O       6.52       2.99      13.27
O       6.24      17.08      22.92
O       4.13      17.89      22.65
O       1.56      13.03      19.30
O       1.38      15.25      19.04
O       4.73      10.92      22.26
O       6.51      12.14      22.92
O       5.28      17.08      13.27
O       7.39      17.89      13.54
O       9.96      13.03      16.89
O      10.14      15.25      17.15
O       6.79      10.92      13.93
O       5.01      12.14      13.27
O       6.26      10.38       1.21
O       4.15       9.56       1.48
O       1.57      14.39       4.83
O       1.39      12.17       5.09
O       4.81      16.54       2.01
O       6.53      15.31       1.21
O       5.28      10.38      10.86
O       7.39       9.56      10.59
O       9.97      14.39       7.23
O      10.15      12.17       6.97
O       6.73      16.54      10.06
O       5.01      15.31      10.85
