19

N      14.19      15.80       6.99
Eu      12.23      17.32       8.70
O      11.10      18.14      10.73
O      10.03      18.39       7.94
O      11.19      17.49       6.31
N      10.15      18.14       6.68
O       9.29      18.51       5.87
N      13.70      19.91       9.15
O      13.38      15.95      10.40
O      13.97      18.84       9.81
O      12.75      19.84       8.30
O      14.34      20.96       9.35
C      10.29      18.71      11.50
C      14.19      15.58      11.29
O      10.56      15.53       9.01
C       9.94      14.44       8.89
O      13.08      15.27       7.40
O      14.44      16.99       7.37
O      14.96      15.16       6.25
