17

Eu       8.29      28.49      10.66
C       6.00      25.61      10.47
N       6.21      29.31      12.68
O       6.61      26.70      10.35
O       9.14      26.43      11.95
O      10.49      28.15      11.98
O      11.01      26.32      13.11
O       6.08      29.55      11.42
C       6.35      29.89       7.86
C      10.25      26.75       8.07
N       9.76      31.08      10.21
O       7.17      29.32       8.63
O       9.44      27.12       8.96
N      10.24      26.96      12.37
O       7.25      28.66      13.04
O      10.04      30.00       9.56
O       8.80      31.01      11.05
