17

C      20.80       9.91       2.61
O      18.15      12.88       1.88
O      20.18       9.98      -1.39
O      16.86      11.11       1.99
Eu      18.53      11.17       0.00
O      18.14      11.94      -2.42
O      16.86      12.92      -0.95
O      16.64      12.73       3.48
N      17.19      12.77      -2.18
C      20.81      14.06      -0.21
N      17.20       8.48      -0.30
O      20.18      10.56       1.73
O      18.16       8.68       0.55
O      16.88       9.47      -1.04
C      20.81       9.54      -2.40
O      20.18      12.97      -0.34
N      17.20      12.25       2.48
