16

O      22.40       1.19       0.72
Eu      24.07       0.57      -0.98
O      26.28       1.88      -1.36
O      24.92       2.71       0.15
O      25.22      -0.22       1.05
C      21.78       1.84       1.61
O      25.82      -1.15      -1.74
O      24.58      -0.35      -3.37
N      25.54      -1.12      -3.00
N      26.02       2.81      -0.52
C      26.03      -0.81       1.82
O      22.95      -1.61      -0.68
O      21.86       0.69      -2.28
O      23.03       2.54      -2.32
N      21.99       1.90      -2.70
C      22.13      -2.56      -0.79
