35

O       7.67      11.75      10.94
O      -1.56       2.65      11.55
H       4.46       2.58      11.31
O       5.68      10.75      11.40
H      10.06       8.13       8.78
H       9.23      10.28       9.73
H       5.73       8.31      11.18
H      -1.13       5.01      11.55
O       0.30       1.35      11.65
H       2.67       6.94      11.14
H       4.43       6.79      10.40
H       8.70       6.07       9.01
H       8.00       4.41      10.25
H       0.25       7.10      11.38
H       2.39       2.61      11.18
C       0.71       6.12      11.32
C       6.87      10.73      10.99
C       1.95       3.60      11.21
C       8.34       7.00       9.42
C       6.65       8.26      10.61
C       0.56       3.70      11.38
C       9.10       8.17       9.28
C       2.10       6.02      11.18
C       6.94       4.54      10.42
C       8.63       9.38       9.80
C       7.11       7.03      10.11
C       4.21       4.70      10.89
C       4.94       5.85      10.54
C       6.32       5.80      10.34
C       7.40       9.43      10.45
C      -0.05       4.96      11.41
C       4.94       3.51      11.01
C      -0.30       2.48      11.54
C       2.74       4.76      11.10
N       6.26       3.43      10.75
