24

Ni       2.40       9.27       7.88
N       0.35       9.42       7.79
Ni       1.13       5.42       9.16
N       4.49       9.14       7.93
N       3.19       5.27       9.25
N      -0.96       5.54       9.11
O       2.41       9.17       9.94
O       1.04       7.37      10.01
O       2.67      11.41       7.72
O       1.13       5.52       7.10
O       2.49       7.32       7.03
O       0.86       3.27       9.32
C       1.73       8.28      10.56
C      -0.35       8.83       6.80
C      -0.35       9.98       8.80
C       5.19       8.62       6.91
C       5.18       9.69       8.95
C       2.75      11.37       6.42
C       1.81       6.41       6.48
C       3.88       5.85      10.24
C       3.88       4.71       8.24
C      -1.65       6.07      10.13
C      -1.65       5.00       8.09
C       0.78       3.32      10.62
