788

C      40.78      24.76      28.36
C      43.04      23.79      28.25
C      42.02      24.29      30.41
C      41.36      23.25      31.10
C      23.05      23.20       0.30
C      23.72      24.20       1.03
C      24.37      25.25       0.34
C      42.71      25.28      31.13
C      39.96      23.85      27.67
C      38.78      24.29      27.04
C      38.40      25.65      27.10
C      39.22      26.56      27.81
C      40.41      26.12      28.42
C      43.84      24.63      27.44
C      44.94      24.10      26.74
C      45.26      22.72      26.84
C      44.45      21.89      27.65
C      43.34      22.42      28.33
C      37.24      26.10      26.49
C      23.61      24.22       2.44
C      46.41      22.21      26.25
C      59.14      23.66      18.59
C      61.39      24.63      18.70
C      23.66      24.15      16.55
C      59.71      25.19      15.86
C      23.04      25.25      14.46
C      23.71      24.25      13.72
C      24.35      23.19      14.40
C      24.35      23.16      15.81
C      58.31      24.58      19.28
C      57.13      24.13      19.91
C      56.76      22.77      19.85
C      57.58      21.87      19.14
C      58.76      22.31      18.52
C      25.48      23.79      19.51
C      26.59      24.32      20.21
C      26.91      25.70      20.11
C      62.80      26.53      19.31
C      61.69      26.01      18.63
C      55.59      22.32      20.46
C      23.60      24.24      12.31
C      28.06      26.21      20.70
C      31.61      29.09      22.92
C      33.86      28.98      23.89
C      32.84      31.14      23.41
C      32.18      31.82      24.46
C      50.57       1.01      24.52
C      14.52       1.76      23.51
C      15.16       1.07      22.45
C      33.51      31.88      22.41
C      30.78      28.40      23.84
C      29.60      27.77      23.40
C      29.23      27.83      22.03
C      30.05      28.55      21.13
C      31.23      29.16      21.57
C      34.67      28.18      23.05
C      35.77      27.48      23.58
C      36.09      27.58      24.96
C      35.27      28.38      25.79
C      34.16      29.06      25.27
C      28.06      27.23      21.58
C      51.11       3.16      23.51
C      37.24      26.99      25.47
C      49.96      19.33      24.02
C      52.21      19.44      23.05
C      51.20      17.28      23.55
C      50.54      16.59      22.51
C      50.58      15.19      22.46
C      51.26      14.46      23.46
C      51.91      15.15      24.51
C      51.89      16.56      24.54
C      49.13      20.02      23.11
C      47.95      20.64      23.55
C      47.58      20.59      24.92
C      48.40      19.88      25.82
C      49.58      19.26      25.38
C      53.01      20.25      23.89
C      54.11      20.95      23.36
C      54.44      20.85      21.98
C      53.63      20.04      21.15
C      52.52      19.36      21.68
C      46.41      21.19      25.37
C      51.16      13.05      23.48
C      55.59      21.44      21.48
C      24.86       7.62       2.49
C      22.61       8.59       2.61
C      23.61       8.10       0.45
C      42.62       9.13      31.95
C      42.58       9.18      30.55
C      41.90       8.17      29.82
C      41.26       7.13      30.52
C      41.27       7.10      31.93
C      25.69       8.53       3.17
C      26.87       8.09       3.80
C      27.24       6.72       3.74
C      26.42       5.82       3.03
C      25.23       6.26       2.42
C      21.81       7.76       3.42
C      20.71       8.28       4.12
C      20.39       9.66       4.02
C      21.19      10.49       3.21
C      22.30       9.97       2.53
C      28.41       6.27       4.34
C      42.00       8.16      28.41
C      19.23      10.17       4.61
C      43.20       8.71      12.25
C      40.95       7.74      12.13
C      41.97       8.23      14.29
C      42.61       7.18      14.98
C      42.57       7.12      16.38
C      41.91       8.12      17.12
C      41.28       9.18      16.43
C      41.28       9.22      15.03
C      44.03       7.79      11.56
C      45.21       8.23      10.94
C      45.59       9.59      10.99
C      44.77      10.50      11.70
C      43.58      10.07      12.31
C      40.14       8.58      11.33
C      39.05       8.05      10.63
C      38.73       6.67      10.72
C      39.54       5.84      11.52
C      40.65       6.37      12.21
C      46.75      10.04      10.39
C      42.03       8.13      18.53
C      37.58       6.16      10.13
C      34.04       3.27       7.90
C      31.78       3.39       6.94
C      32.80       1.23       7.43
C      33.46       0.53       6.39
C      51.77      31.34       6.34
C      51.09      30.61       7.34
C      50.44      31.31       8.39
C      32.10       0.50       8.42
C      34.86       3.96       6.99
C      36.04       4.59       7.43
C      36.42       4.53       8.79
C      35.60       3.82       9.70
C      34.41       3.21       9.26
C      30.98       4.20       7.77
C      29.88       4.90       7.24
C      29.56       4.80       5.87
C      30.37       3.99       5.04
C      31.47       3.30       5.56
C      37.58       5.14       9.25
C      51.20      29.20       7.36
C      28.41       5.39       5.36
C      15.67      13.04       6.83
C      13.42      12.92       7.79
C      14.43      15.09       7.30
C      15.08      15.78       8.34
C      15.03      17.18       8.39
C      51.07      17.91       7.39
C      13.73      17.22       6.33
C      13.74      15.81       6.31
C      16.50      12.36       7.74
C      17.69      11.74       7.30
C      18.06      11.79       5.94
C      17.24      12.50       5.03
C      16.05      13.11       5.47
C      12.62      12.11       6.95
C      11.52      11.41       7.48
C      47.91      11.51       8.86
C      48.72      12.32       9.69
C      13.12      13.00       9.17
C      19.23      11.19       5.49
C      51.18      19.32       7.38
C      46.76      10.92       9.36
C      43.66       8.72      20.23
C      44.23       7.45      20.48
C      45.14       7.26      21.53
C      45.59       8.33      22.33
C      44.96       9.59      22.12
C      44.04       9.79      21.07
C      46.57       8.13      23.48
C      45.58       7.93      24.63
C      45.14       9.01      25.43
C      44.22       8.82      26.48
C      43.64       7.55      26.73
C      44.02       6.48      25.89
C      44.94       6.68      24.84
C      47.55       6.97      23.28
C      47.56       9.27      23.69
C      48.20       9.48      24.94
C      49.12      10.53      25.14
C      49.50      11.37      24.07
C      48.94      11.12      22.80
C      48.02      10.08      22.61
C      48.20       6.76      22.03
C      49.11       5.71      21.84
C      49.48       4.86      22.90
C      48.91       5.12      24.17
C      48.00       6.17      24.36
C      16.11      21.02       6.78
C      53.39      21.26       8.05
C      17.59      22.31       8.24
C      18.05      23.11       7.16
C      17.40      22.90       5.91
C      16.49      21.86       5.71
C      19.04      24.25       7.37
C      54.77      25.41       7.57
C      54.32      26.22       6.49
C      53.41      27.27       6.69
C      52.84      27.51       7.96
C      53.22      26.67       9.02
C      54.13      25.62       8.82
C      20.02      24.04       8.52
C      20.02      24.45       6.22
C      20.67      25.70       6.01
C      21.59      25.90       4.96
C      21.96      24.82       4.12
C      21.39      23.56       4.37
C      20.47      23.37       5.41
C      20.66      22.79       8.73
C      21.57      22.59       9.78
C      21.95      23.65      10.62
C      21.39      24.93      10.37
C      20.48      25.12       9.32
C      64.49      24.76      28.36
C      30.04      23.79      28.25
C      65.73      24.29      30.41
C      65.07      23.25      31.10
C      46.76      23.20       0.30
C      47.43      24.20       1.03
C      48.08      25.25       0.34
C      66.42      25.28      31.13
C      63.67      23.85      27.67
C      62.49      24.29      27.04
C      62.11      25.65      27.10
C      62.93      26.56      27.81
C      64.12      26.12      28.42
C      30.84      24.63      27.44
C      31.94      24.10      26.74
C      32.26      22.72      26.84
C      31.45      21.89      27.65
C      30.34      22.42      28.33
C      60.95      26.10      26.49
C      47.32      24.22       2.44
C      33.41      22.21      26.25
C      46.14      23.66      18.59
C      48.39      24.63      18.70
C      47.37      24.15      16.55
C      46.71      25.19      15.86
C      46.75      25.25      14.46
C      47.42      24.25      13.72
C      48.06      23.19      14.40
C      48.06      23.16      15.81
C      45.31      24.58      19.28
C      44.13      24.13      19.91
C      43.76      22.77      19.85
C      44.58      21.87      19.14
C      45.76      22.31      18.52
C      49.19      23.79      19.51
C      50.30      24.32      20.21
C      50.62      25.70      20.11
C      49.80      26.53      19.31
C      48.69      26.01      18.63
C      42.59      22.32      20.46
C      47.31      24.24      12.31
C      51.77      26.21      20.70
C      55.32      29.09      22.92
C      57.57      28.98      23.89
C      56.55      31.14      23.41
C      55.90      31.82      24.46
C      37.57       1.01      24.52
C      38.23       1.76      23.51
C      38.87       1.07      22.45
C      57.22      31.88      22.41
C      54.49      28.40      23.84
C      53.31      27.77      23.40
C      52.94      27.83      22.03
C      53.76      28.55      21.13
C      54.94      29.16      21.57
C      58.38      28.18      23.05
C      59.48      27.48      23.58
C      59.80      27.58      24.96
C      58.98      28.38      25.79
C      57.87      29.06      25.27
C      51.77      27.23      21.58
C      38.11       3.16      23.51
C      60.95      26.99      25.47
C      36.96      19.33      24.02
C      39.21      19.44      23.05
C      38.20      17.28      23.55
C      37.54      16.59      22.51
C      37.58      15.19      22.46
C      38.26      14.46      23.46
C      38.91      15.15      24.51
C      38.89      16.56      24.54
C      36.13      20.02      23.11
C      34.95      20.64      23.55
C      34.58      20.59      24.92
C      35.40      19.88      25.82
C      36.58      19.26      25.38
C      40.01      20.25      23.89
C      41.11      20.95      23.36
C      41.44      20.85      21.98
C      40.63      20.04      21.15
C      39.52      19.36      21.68
C      33.41      21.19      25.37
C      38.16      13.05      23.48
C      42.59      21.44      21.48
C      11.86       7.62       2.49
C       9.61       8.59       2.61
C      10.61       8.10       0.45
C      29.62       9.13      31.95
C      29.58       9.18      30.55
C      28.90       8.17      29.82
C      28.26       7.13      30.52
C      28.27       7.10      31.93
C      12.69       8.53       3.17
C      13.87       8.09       3.80
C      14.24       6.72       3.74
C      13.42       5.82       3.03
C      12.23       6.26       2.42
C       8.81       7.76       3.42
C       7.71       8.28       4.12
C      44.10       9.66       4.02
C       8.19      10.49       3.21
C       9.30       9.97       2.53
C      15.41       6.27       4.34
C      29.00       8.16      28.41
C      42.94      10.17       4.61
C      30.20       8.71      12.25
C      27.95       7.74      12.13
C      28.97       8.23      14.29
C      29.61       7.18      14.98
C      29.57       7.12      16.38
C      28.91       8.12      17.12
C      28.28       9.18      16.43
C      28.28       9.22      15.03
C      31.03       7.79      11.56
C      32.21       8.23      10.94
C      32.59       9.59      10.99
C      31.77      10.50      11.70
C      30.58      10.07      12.31
C      27.14       8.58      11.33
C      26.05       8.05      10.63
C      25.73       6.67      10.72
C      26.54       5.84      11.52
C      27.65       6.37      12.21
C      33.75      10.04      10.39
C      29.03       8.13      18.53
C      24.58       6.16      10.13
C      21.04       3.27       7.90
C      18.78       3.39       6.94
C      19.80       1.23       7.43
C      20.46       0.53       6.39
C      38.77      31.34       6.34
C      38.09      30.61       7.34
C      37.44      31.31       8.39
C      19.10       0.50       8.42
C      21.86       3.96       6.99
C      23.04       4.59       7.43
C      23.42       4.53       8.79
C      22.60       3.82       9.70
C      21.41       3.21       9.26
C      17.98       4.20       7.77
C      16.88       4.90       7.24
C      16.56       4.80       5.87
C      17.37       3.99       5.04
C      18.47       3.30       5.56
C      24.58       5.14       9.25
C      38.20      29.20       7.36
C      15.41       5.39       5.36
C      39.39      13.04       6.83
C      37.13      12.92       7.79
C      38.14      15.09       7.30
C      38.79      15.78       8.34
C      38.74      17.18       8.39
C      38.07      17.91       7.39
C      37.44      17.22       6.33
C      37.45      15.81       6.31
C      40.22      12.36       7.74
C      41.40      11.74       7.30
C      41.77      11.79       5.94
C      40.95      12.50       5.03
C      39.76      13.11       5.47
C      36.33      12.11       6.95
C      35.23      11.41       7.48
C      34.91      11.51       8.86
C      35.72      12.32       9.69
C      36.83      13.00       9.17
C      42.94      11.19       5.49
C      38.18      19.32       7.38
C      33.76      10.92       9.36
C      30.66       8.72      20.23
C      31.23       7.45      20.48
C      32.14       7.26      21.53
C      32.59       8.33      22.33
C      31.96       9.59      22.12
C      31.04       9.79      21.07
C      33.57       8.13      23.48
C      32.58       7.93      24.63
C      32.14       9.01      25.43
C      31.22       8.82      26.48
C      30.64       7.55      26.73
C      31.02       6.48      25.89
C      31.94       6.68      24.84
C      34.55       6.97      23.28
C      34.56       9.27      23.69
C      35.20       9.48      24.94
C      36.12      10.53      25.14
C      36.50      11.37      24.07
C      35.94      11.12      22.80
C      35.02      10.08      22.61
C      35.20       6.76      22.03
C      36.11       5.71      21.84
C      36.48       4.86      22.90
C      35.91       5.12      24.17
C      35.00       6.17      24.36
C      39.82      21.02       6.78
C      40.39      21.26       8.05
C      41.30      22.31       8.24
C      41.76      23.11       7.16
C      41.12      22.90       5.91
C      40.20      21.86       5.71
C      42.75      24.25       7.37
C      41.77      25.41       7.57
C      41.32      26.22       6.49
C      40.41      27.27       6.69
C      39.84      27.51       7.96
C      40.22      26.67       9.02
C      41.13      25.62       8.82
C      43.73      24.04       8.52
C      43.73      24.45       6.22
C      44.38      25.70       6.01
C      45.30      25.90       4.96
C      45.67      24.82       4.12
C      45.10      23.56       4.37
C      44.18      23.37       5.41
C      44.37      22.79       8.73
C      45.28      22.59       9.78
C      45.66      23.65      10.62
C      45.10      24.93      10.37
C      44.19      25.12       9.32
H      38.20      23.61      26.54
H      40.21      22.86      27.62
H      40.99      26.79      28.92
H      38.97      27.55      27.88
H      40.84      22.53      30.58
H      22.53      22.46       0.78
H      43.64      25.63      27.38
H      45.52      24.73      26.18
H      44.67      20.90      27.76
H      42.78      21.80      28.91
H      43.18      26.04      30.64
H      24.84      26.00       0.85
H      56.55      24.81      20.41
H      58.57      25.56      19.33
H      22.64      21.63      18.02
H      57.32      20.88      19.07
H      59.20      25.90      16.38
H      59.24      26.00      13.98
H      25.28      22.79      19.57
H      27.17      23.69      20.76
H      63.03      27.53      19.19
H      61.13      26.63      18.04
H      24.81      22.39      16.30
H      24.82      22.45      13.89
H      65.73      27.27      24.07
H      31.04      28.35      24.82
H      31.82      29.66      20.89
H      29.79      28.62      20.14
H      68.39      31.30      25.17
H      50.06       1.48      25.27
H      34.47      28.12      22.05
H      36.35      26.93      22.95
H      35.49      28.49      26.79
H      33.59      29.64      25.89
H      33.97      31.40      21.64
H      15.62       1.59      21.70
H      47.37      21.14      22.87
H      49.38      20.07      22.12
H      50.17      18.76      26.05
H      48.15      19.81      26.81
H      50.02      17.10      21.80
H      50.07      14.70      21.72
H      52.81      20.31      24.89
H      54.70      21.51      23.99
H      53.85      19.93      20.16
H      51.95      18.78      21.06
H      52.36      17.05      25.30
H      52.39      14.64      25.26
H      27.46       8.76       4.30
H      25.44       9.52       3.22
H      24.64       5.59       1.92
H      26.67       4.83       2.96
H      24.79       9.85       0.26
H      43.08       9.92      30.06
H      22.01       6.76       3.48
H      20.13       7.65       4.68
H      20.97      11.48       3.09
H      22.86      10.59       1.94
H      22.45       6.34       0.22
H      40.78       6.38      30.01
H      45.79       7.55      10.44
H      43.77       6.81      11.51
H      43.00      10.74      12.81
H      45.02      11.49      11.77
H      43.12       6.46      14.46
H      43.08       6.37      16.86
H      40.34       9.58      11.27
H      38.46       8.68      10.07
H      39.32       4.85      11.64
H      41.21       5.75      12.79
H      40.82       9.99      14.54
H      40.81       9.93      16.95
H      36.62       5.09       6.75
H      34.61       4.01       6.00
H      33.83       2.71       9.93
H      35.85       3.75      10.69
H      33.98       1.04       5.68
H      52.28      30.86       5.60
H      31.19       4.26       8.77
H      29.30       5.46       7.88
H      30.14       3.87       4.05
H      32.04       2.72       4.94
H      31.63       0.99       9.18
H      49.97      30.80       9.14
H      18.27      11.24       7.98
H      16.25      12.31       8.73
H      15.46      13.61       4.79
H      17.49      12.57       4.04
H      15.59      15.27       9.06
H      15.53      17.67       9.14
H      12.82      12.05       5.95
H      10.94      10.85       6.85
H      48.49      12.43      10.68
H      13.68      13.59       9.79
H      13.28      15.32       5.54
H      49.97      17.73       5.58
H      49.50      10.68      26.08
H      47.97       8.89      25.74
H      49.14      11.73      22.01
H      47.66       9.93      21.66
H      47.97       7.35      21.23
H      49.49       5.55      20.90
H      47.64       6.31      25.31
H      45.17       5.87      24.25
H      43.64       5.55      26.04
H      44.02       9.61      27.09
H      45.50       9.95      25.29
H      45.19      10.39      22.71
H      45.50       6.31      21.67
H      44.02       6.66      19.86
H      43.66      10.73      20.91
H      49.10       4.50      24.97
H      49.97       3.23      21.86
H      50.00      13.00      25.12
H      43.18       9.77      18.60
H      43.15       6.51      28.36
H      21.97      26.83       4.80
H      20.44      26.51       6.60
H      21.58      22.76       3.76
H      20.10      22.43       5.56
H      20.42      21.99       8.14
H      21.95      21.65       9.93
H      20.12      26.07       9.18
H      54.36      25.03       9.63
H      52.83      26.83       9.96
H      53.21      27.88       5.89
H      54.68      26.07       5.55
H      17.64      23.49       5.11
H      54.67      22.45       9.19
H      53.18      20.65       8.84
H      16.10      21.70       4.77
H      21.59      25.72      10.99
H      22.44      22.60      12.25
H      22.47      25.87       2.49
H      15.62      19.39       5.73
H      52.35      29.15       9.00
H      61.91      23.61      26.54
H      63.92      22.86      27.62
H      64.70      26.79      28.92
H      62.68      27.55      27.88
H      64.55      22.53      30.58
H      46.25      22.46       0.78
H      30.64      25.63      27.38
H      32.52      24.73      26.18
H      31.67      20.90      27.76
H      29.78      21.80      28.91
H      66.89      26.04      30.64
H      48.55      26.00       0.85
H      43.55      24.81      20.41
H      45.57      25.56      19.33
H      46.35      21.63      18.02
H      44.32      20.88      19.07
H      46.20      25.90      16.38
H      46.24      26.00      13.98
H      48.99      22.79      19.57
H      50.88      23.69      20.76
H      50.03      27.53      19.19
H      48.13      26.63      18.04
H      48.52      22.39      16.30
H      48.53      22.45      13.89
H      52.73      27.27      24.07
H      54.75      28.35      24.82
H      55.53      29.66      20.89
H      53.50      28.62      20.14
H      55.39      31.30      25.17
H      37.06       1.48      25.27
H      58.18      28.12      22.05
H      60.07      26.93      22.95
H      59.20      28.49      26.79
H      57.31      29.64      25.89
H      57.68      31.40      21.64
H      39.33       1.59      21.70
H      34.37      21.14      22.87
H      36.38      20.07      22.12
H      37.17      18.76      26.05
H      35.15      19.81      26.81
H      37.02      17.10      21.80
H      37.07      14.70      21.72
H      39.81      20.31      24.89
H      41.70      21.51      23.99
H      40.85      19.93      20.16
H      38.95      18.78      21.06
H      39.36      17.05      25.30
H      39.39      14.64      25.26
H      14.46       8.76       4.30
H      12.44       9.52       3.22
H      11.64       5.59       1.92
H      13.67       4.83       2.96
H      11.79       9.85       0.26
H      30.08       9.92      30.06
H       9.01       6.76       3.48
H       7.13       7.65       4.68
H      44.68      11.48       3.09
H       9.86      10.59       1.94
H       9.45       6.34       0.22
H      27.78       6.38      30.01
H      32.79       7.55      10.44
H      30.77       6.81      11.51
H      30.00      10.74      12.81
H      32.02      11.49      11.77
H      30.13       6.46      14.46
H      30.08       6.37      16.86
H      27.34       9.58      11.27
H      25.46       8.68      10.07
H      26.32       4.85      11.64
H      28.21       5.75      12.79
H      27.82       9.99      14.54
H      27.81       9.93      16.95
H      23.62       5.09       6.75
H      21.61       4.01       6.00
H      20.83       2.71       9.93
H      22.85       3.75      10.69
H      20.98       1.04       5.68
H      39.28      30.86       5.60
H      18.19       4.26       8.77
H      16.30       5.46       7.88
H      17.14       3.87       4.05
H      19.04       2.72       4.94
H      18.63       0.99       9.18
H      36.97      30.80       9.14
H      41.98      11.24       7.98
H      39.96      12.31       8.73
H      39.18      13.61       4.79
H      41.20      12.57       4.04
H      39.30      15.27       9.06
H      39.25      17.67       9.14
H      36.53      12.05       5.95
H      34.65      10.85       6.85
H      35.49      12.43      10.68
H      37.39      13.59       9.79
H      36.99      15.32       5.54
H      36.97      17.73       5.58
H      36.50      10.68      26.08
H      34.97       8.89      25.74
H      36.14      11.73      22.01
H      34.66       9.93      21.66
H      34.97       7.35      21.23
H      36.49       5.55      20.90
H      34.64       6.31      25.31
H      32.17       5.87      24.25
H      30.64       5.55      26.04
H      31.02       9.61      27.09
H      32.50       9.95      25.29
H      32.19      10.39      22.71
H      32.50       6.31      21.67
H      31.02       6.66      19.86
H      30.66      10.73      20.91
H      36.10       4.50      24.97
H      36.97       3.23      21.86
H      37.00      13.00      25.12
H      30.18       9.77      18.60
H      30.15       6.51      28.36
H      45.69      26.83       4.80
H      44.16      26.51       6.60
H      45.30      22.76       3.76
H      43.81      22.43       5.56
H      44.13      21.99       8.14
H      45.66      21.65       9.93
H      43.83      26.07       9.18
H      41.36      25.03       9.63
H      39.83      26.83       9.96
H      40.21      27.88       5.89
H      41.68      26.07       5.55
H      41.35      23.49       5.11
H      41.67      22.45       9.19
H      40.18      20.65       8.84
H      39.82      21.70       4.77
H      45.30      25.72      10.99
H      46.15      22.60      12.25
H      46.18      25.87       2.49
H      39.33      19.39       5.73
H      39.35      29.15       9.00
N      41.97      24.34      29.00
N      60.33      24.09      17.96
N      32.80      29.73      23.34
N      51.15      18.69      23.60
N      23.67       8.05       1.86
N      42.01       8.29      12.88
N      32.85       2.64       7.48
N      14.48      13.68       7.25
N      50.23       3.74      22.65
N      50.26      12.48      24.33
N      42.92       8.98      19.11
N      42.89       7.30      27.84
N      22.70      23.39      11.74
N      22.72      25.07       3.00
N      15.35      19.90       6.52
N      52.09      28.63       8.21
N      65.68      24.34      29.00
N      47.33      24.09      17.96
N      56.51      29.73      23.34
N      38.15      18.69      23.60
N      10.67       8.05       1.86
N      29.01       8.29      12.88
N      19.85       2.64       7.48
N      38.19      13.68       7.25
N      37.23       3.74      22.65
N      37.26      12.48      24.33
N      29.92       8.98      19.11
N      29.89       7.30      27.84
N      46.41      23.39      11.74
N      46.43      25.07       3.00
N      39.07      19.90       6.52
N      39.09      28.63       8.21
O      47.47      22.70      26.65
O      24.01      23.09       3.08
O      36.19      25.70      26.98
O      29.11      25.73      20.29
O      24.01      25.36      11.67
O      54.54      22.72      19.97
O      38.29      27.39      24.99
O      51.52       3.80      24.63
O      63.72      27.71      21.99
O      56.64      21.04      21.96
O      51.56      12.40      22.36
O      45.36      20.71      24.97
O      18.18       9.68       4.21
O      41.60       9.28      27.76
O      29.46       6.67       3.85
O      36.52       6.64      10.53
O      41.61       7.01      19.17
O      47.80       9.64      10.88
O      27.35       4.99       5.85
O      50.79      28.56       6.24
O      38.63       4.65       8.85
O      45.70      11.32       8.88
O      50.77      19.96       8.49
O      20.28      11.68       5.89
O      34.47      22.70      26.65
O      47.72      23.09       3.08
O      59.90      25.70      26.98
O      52.82      25.73      20.29
O      47.72      25.36      11.67
O      41.54      22.72      19.97
O      62.00      27.39      24.99
O      38.52       3.80      24.63
O      50.72      27.71      21.99
O      43.64      21.04      21.96
O      38.56      12.40      22.36
O      32.36      20.71      24.97
O      41.89       9.68       4.21
O      28.60       9.28      27.76
O      16.46       6.67       3.85
O      23.52       6.64      10.53
O      28.61       7.01      19.17
O      34.80       9.64      10.88
O      14.35       4.99       5.85
O      37.79      28.56       6.24
O      25.63       4.65       8.85
O      32.70      11.32       8.88
O      37.77      19.96       8.49
O      43.99      11.68       5.89
