272

C       0.34      19.17       0.51
C       0.61      19.53       1.86
C       0.57      18.59       2.92
C       0.28      17.24       2.64
C      19.52      16.84       1.31
C       0.04      17.80       0.28
C       0.31       0.60      38.50
C       0.09       1.98      38.75
C      19.50       2.93      37.72
C       0.08       2.51      36.38
C       0.31       1.15      36.08
C       0.44       0.22      37.14
C       0.44       0.14      19.98
C       0.11       0.16      21.37
C       1.04      19.34      22.37
C       2.37      19.05      22.01
C       2.75      19.03      20.65
C       1.79      19.33      19.67
C      19.00       0.40      18.95
C      17.61       0.27      19.20
C      16.64       0.41      18.18
C      17.05       0.70      16.87
C      18.42       0.84      16.58
C      19.37       0.71      17.61
C      19.04       0.15      32.74
C       0.55      18.83      32.29
C       0.69      18.54      30.92
C      19.32      19.09      29.98
C      18.14       0.65      31.78
C      19.44      18.89      28.58
C      18.66       0.07      27.63
C      18.89      19.41      26.25
C       0.37      18.52      25.80
C       1.10      17.82      26.78
C      18.89       0.50      34.07
C       0.67      18.36      24.46
C       0.07       0.28      13.26
C       0.80       1.34      12.69
C       0.93       1.43      11.29
C       0.29       0.48      10.45
C      18.99      18.87      12.40
C       0.38       0.50       9.03
C      19.04      19.27       8.21
C      19.19      19.29       6.82
C       0.70       0.51       6.21
C       1.53       1.27       7.07
C      19.47       0.13      14.63
C       0.88       0.51       4.83
C      18.73      13.43       0.06
C      18.74      12.71       1.28
C      18.65      11.30       1.28
C      18.57      10.60       0.06
C      18.57      12.69      37.92
C      18.60       9.19      39.04
C      18.63       8.48      37.81
C      18.78       7.09      37.81
C      18.89       6.37      39.02
C      18.81       7.11       1.17
C      18.91      14.82       0.00
C      19.10       4.98       0.01
C       6.16      18.53      19.28
C       6.87      18.36      20.49
C       8.28      18.37      20.51
C       8.99      18.56      19.31
C       6.92      18.63      18.09
C      10.40      18.71      19.27
C      11.11      18.99      18.08
C      12.50      19.22      18.14
C      13.19      19.16      19.37
C      12.45      18.85      20.52
C       4.76      18.67      19.24
C      14.58      19.40      19.46
C       6.34       3.64       3.51
C       6.61       4.00       4.86
C       6.57       3.06       5.92
C       6.28       1.72       5.64
C       5.99       1.31       4.31
C       6.04       2.27       3.28
C       6.31       4.60       2.45
C       6.09       5.98       2.70
C       5.97       6.93       1.66
C       6.08       6.51       0.32
C       6.31       5.15       0.03
C       6.44       4.22       1.08
C       6.44       4.14      22.98
C       6.11       4.16      24.37
C       7.04       3.81      25.37
C       8.37       3.52      25.01
C       8.75       3.50      23.65
C       7.79       3.80      22.67
C       5.47       4.40      21.95
C       4.08       4.27      22.20
C       3.11       4.41      21.18
C       3.52       4.70      19.87
C       4.89       4.84      19.58
C       5.84       4.71      20.61
C       5.51       4.15      35.74
C       6.55       3.30      35.29
C       6.69       3.01      33.92
C       5.79       3.56      32.98
C       4.61       4.65      34.78
C       5.92       3.37      31.58
C       5.13       4.07      30.63
C       5.36       3.88      29.25
C       6.37       3.00      28.80
C       7.10       2.29      29.78
C       5.36       4.50      37.07
C       6.67       2.83      27.46
C       6.07       4.28      16.26
C       6.80       5.34      15.69
C       6.93       5.43      14.29
C       6.29       4.48      13.45
C       5.46       3.34      15.40
C       6.38       4.50      12.03
C       5.51       3.74      11.21
C       5.67       3.76       9.82
C       6.70       4.51       9.21
C       7.53       5.27      10.07
C       5.94       4.13      17.63
C       6.88       4.51       7.83
C       5.20      17.43       3.06
C       5.21      16.71       4.28
C       5.12      15.30       4.28
C       5.04      14.60       3.06
C       5.04      16.69       1.87
C       5.07      13.19       2.98
C       5.10      12.48       1.76
C       5.25      11.09       1.75
C       5.36      10.37       2.97
C       5.28      11.11       4.17
C       5.38      18.82       3.00
C       5.57       8.98       3.01
C      12.16       3.00      22.28
C      12.87       2.83      23.49
C      14.28       2.84      23.51
C      14.99       3.03      22.31
C      12.92       3.10      21.09
C      16.40       3.18      22.27
C      17.11       3.46      21.08
C      18.50       3.69      21.14
C      19.19       3.63      22.37
C      18.45       3.32      23.52
C      10.76       3.14      22.24
C       1.05       3.87      22.46
H       0.88       0.95       2.09
H       0.66      18.79      36.88
H       1.09      15.95       3.75
H      18.57       3.52      35.17
H      19.28      17.50      38.41
H      19.44       2.29       0.65
H      18.71       0.45      21.68
H       0.82       0.87      17.36
H       3.66       0.10      23.27
H      16.01      19.43      15.50
H       2.07      19.23      18.70
H      17.28      19.48      20.11
H       1.85      17.17      26.52
H      17.94       0.73      27.92
H      18.33       0.42      25.58
H      17.37       1.27      32.04
H       1.22      18.43      32.95
H       1.47      17.94      30.63
H       1.01      17.47      24.15
H      17.96       0.64      34.43
H       2.29       1.85       6.70
H      18.28      18.71       8.62
H      18.55      18.74       6.25
H      18.44      18.09      12.76
H       1.27       2.03      13.28
H       1.47       2.21      10.89
H       1.50       1.17       4.44
H       0.19      18.78      15.03
H      18.88       6.65       2.08
H      18.58       8.97      36.91
H      18.83       6.60      36.91
H      18.56      13.14      37.01
H      18.85      13.19       2.17
H      18.70      10.81       2.18
H      19.18       4.52       0.92
H      18.91      15.28      38.15
H      12.89      18.79      21.44
H      10.64      19.06      17.18
H      12.98      19.44      17.26
H       6.47      18.77      17.18
H       6.38      18.28      21.38
H       8.75      18.29      21.41
H      15.03      19.32      20.38
H       4.30      18.83      18.34
H       6.88       4.95       5.09
H       6.66       3.26       0.82
H       7.09       0.43       6.75
H       5.04       7.52      38.17
H       5.75       1.97       2.35
H       5.91       6.29       3.65
H       5.19       4.45      24.68
H       6.82       4.87      20.36
H       9.66       4.10      26.27
H       2.48       3.90      18.50
H       8.07       3.70      21.70
H       3.76       3.95      23.11
H       7.85       1.64      29.52
H       4.41       4.73      30.92
H       4.80       4.42      28.58
H       3.84       5.27      35.04
H       7.22       2.91      35.95
H       7.47       2.41      33.63
H       7.01       1.95      27.15
H       4.44       4.64      37.43
H       8.29       5.85       9.70
H       4.75       3.18      11.62
H       5.02       3.21       9.25
H       4.92       2.56      15.76
H       7.27       6.03      16.28
H       7.47       6.21      13.89
H       7.50       5.17       7.44
H       6.19       3.25      18.03
H       5.36      10.65       5.08
H       5.05      12.97       0.86
H       5.30      10.60       0.85
H       5.03      17.14       0.95
H       5.32      17.19       5.17
H       5.17      14.81       5.18
H       5.65       8.52       3.92
H       5.38      19.28       2.09
H      18.89       3.26      24.44
H      16.64       3.53      20.18
H      18.98       3.91      20.26
H      12.47       3.24      20.18
H      12.38       2.75      24.38
H      14.75       2.76      24.41
H       1.50       3.79      23.38
H      10.30       3.31      21.34
N       0.37       0.74      34.83
N      19.26       4.25      37.94
N      19.21      15.54       1.11
N       0.74      18.92       4.20
N      18.78       0.98      15.30
N      15.32       0.19      18.38
N       4.04      18.75      20.38
N       0.66      19.35      23.64
N      18.32       0.36      30.47
N       0.86      18.04      28.10
N      19.12      19.01      11.06
N       1.34       1.24       8.41
N      18.52      11.33      37.97
N      18.69       8.46       1.13
N       8.27      18.67      18.16
N      11.11      18.65      20.43
N       6.37       4.74      37.83
N       5.74       8.25       1.89
N       5.69       0.01       4.11
N       6.74       3.39       7.20
N       5.25       4.98      18.30
N       1.79       4.19      21.38
N      10.04       3.22      23.38
N       6.66       3.83      26.64
N       4.79       4.36      33.47
N       6.86       2.51      31.10
N       5.59       3.48      14.06
N       7.34       5.24      11.41
N       4.99      15.33       1.91
N       5.16      12.46       4.13
N      14.27       3.14      21.16
N      17.11       3.12      23.43
O       0.19      16.33       3.65
O      19.52       3.42      35.36
O       3.30      18.76      22.97
O      16.13       0.81      15.87
O       6.19       0.81       6.65
O       5.99       7.42      38.36
O       9.30       3.23      25.97
O       2.60       4.81      18.87
