20

C       1.10       7.23       8.09
C       2.51       6.44      11.95
C       0.96       7.35       6.64
C       1.74       6.85      10.78
C       2.10       8.03      10.12
C       1.78       8.22       8.79
C       0.53       6.17       8.81
C       0.81       6.00      10.17
C       3.45       8.66       9.95
C       3.11       8.85       8.50
H      -0.04       5.41       8.29
H       0.42       5.15      10.70
H       4.28       7.93      10.09
H       3.55       9.61      10.51
H       3.04       9.92       8.21
H       3.75       8.24       7.82
O       0.53       6.29       5.99
O       1.84       8.15       6.09
O       2.40       5.23      12.44
O       3.36       7.30      12.34
