22

C      -5.36       9.68      17.68
C      -5.38       9.68      19.07
C      -3.54       6.58      19.79
C      -3.59       6.53      17.00
C      -4.19       7.60      19.09
C      -4.15       7.62      17.68
C      -2.94       5.53      17.71
C      -3.01       5.50      19.08
C      -4.09       6.18      15.67
C      -2.99       6.82      21.12
C      -4.86       8.62      19.77
C      -4.69       8.71      17.00
H      -2.43       4.73      17.21
H      -2.58       4.65      19.60
H      -5.10       8.58      20.82
H      -4.52       8.89      15.95
H      -5.87      10.47      19.60
H      -5.80      10.50      17.14
O      -5.07       6.87      15.17
O      -3.10       8.02      21.62
O      -3.75       5.01      15.26
O      -2.15       5.95      21.53
