396

C      58.46      33.75      22.40
C      57.26      34.44      24.35
C      58.46      32.37      24.36
C      56.37      35.36      24.99
C      55.87      36.50      24.31
C      54.88      37.33      24.89
C      54.39      37.06      26.18
C      54.90      35.94      26.89
C      55.88      35.12      26.30
C      58.81      33.94      21.02
C      58.36      35.08      20.30
C      58.58      35.21      18.92
C      59.28      34.21      18.21
C      59.77      33.09      18.92
C      59.54      32.97      20.30
C      58.80      31.14      25.01
C      59.56      30.14      24.34
C      59.78      28.88      24.93
C      59.27      28.58      26.21
C      58.54      29.57      26.89
C      58.32      30.84      26.31
C      45.48      32.37      24.35
C      46.68      34.44      24.36
C      45.48      33.75      22.40
C      47.57      35.35      25.01
C      48.07      35.09      26.31
C      49.06      35.91      26.90
C      49.55      37.04      26.21
C      49.04      37.33      24.93
C      48.06      36.51      24.34
C      45.13      31.14      24.99
C      45.58      30.84      26.31
C      45.36      29.57      26.89
C      44.66      28.57      26.19
C      44.18      28.87      24.89
C      44.40      30.13      24.31
C      45.14      33.96      21.02
C      44.38      33.00      20.31
C      44.16      33.13      18.92
C      44.67      34.23      18.21
C      45.40      35.21      18.92
C      45.62      35.08      20.30
C      50.77      23.21      24.36
C      51.97      22.51      22.40
C      53.17      23.20      24.35
C      51.96      22.12      21.02
C      50.75      21.97      20.30
C      50.74      21.71      18.92
C      51.95      21.57      18.21
C      53.17      21.68      18.92
C      53.17      21.94      20.30
C      49.54      23.52      25.01
C      48.30      23.36      24.34
C      47.09      23.80      24.93
C      47.09      24.40      26.21
C      48.31      24.53      26.90
C      49.51      24.09      26.31
C      54.41      23.52      24.99
C      54.44      24.06      26.31
C      55.65      24.49      26.89
C      56.87      24.39      26.19
C      56.85      23.82      24.89
C      55.65      23.39      24.31
C      53.17      30.70      13.76
C      51.97      28.62      13.76
C      50.77      30.69      13.76
C      51.98      27.19      13.84
C      53.19      26.46      13.94
C      53.20      25.07      14.16
C      51.99      24.36      14.26
C      50.77      25.06      14.13
C      50.77      26.46      13.91
C      54.40      31.42      13.84
C      55.65      30.74      13.91
C      56.85      31.44      14.13
C      56.85      32.84      14.27
C      55.63      33.53      14.16
C      54.43      32.83      13.94
C      49.53      31.40      13.84
C      49.50      32.82      13.91
C      48.29      33.52      14.13
C      47.07      32.82      14.27
C      47.09      31.41      14.16
C      48.29      30.72      13.94
C      23.65       6.16       5.82
C      22.45       5.46       3.87
C      23.64       7.54       3.86
C      21.55       4.55       3.23
C      21.05       3.41       3.91
C      20.07       2.58       3.33
C      19.57       2.85       2.04
C      20.09       3.97       1.34
C      21.07       4.79       1.92
C      23.99       5.97       7.20
C      23.54       4.83       7.92
C      23.77       4.70       9.30
C      24.47       5.70      10.01
C      24.95       6.82       9.30
C      24.73       6.94       7.92
C      23.98       8.77       3.21
C      24.74       9.77       3.88
C      24.97      11.03       3.29
C      24.46      11.33       2.01
C      23.73      10.34       1.33
C      23.51       9.07       1.91
C      10.66       7.54       3.87
C      11.87       5.47       3.86
C      10.67       6.16       5.82
C      12.76       4.56       3.21
C      13.26       4.82       1.91
C      14.24       4.00       1.33
C      14.74       2.87       2.01
C      14.22       2.58       3.29
C      13.24       3.40       3.88
C      10.32       8.77       3.23
C      10.77       9.07       1.91
C      10.55      10.34       1.33
C       9.84      11.34       2.04
C       9.36      11.04       3.33
C       9.58       9.78       3.91
C      10.33       5.95       7.20
C       9.57       6.91       7.92
C       9.34       6.78       9.30
C       9.86       5.68      10.01
C      10.58       4.70       9.30
C      10.81       4.83       7.92
C      15.96      16.70       3.86
C      17.15      17.40       5.82
C      18.36      16.71       3.87
C      17.15      17.79       7.20
C      15.93      17.94       7.92
C      15.93      18.20       9.30
C      17.14      18.34      10.01
C      18.36      18.23       9.30
C      18.36      17.97       7.92
C      14.73      16.39       3.21
C      13.48      16.55       3.88
C      12.28      16.11       3.29
C      12.27      15.51       2.01
C      13.50      15.38       1.33
C      14.70      15.82       1.91
C      19.60      16.39       3.23
C      19.63      15.85       1.92
C      20.83      15.42       1.33
C      22.05      15.52       2.04
C      22.04      16.09       3.33
C      20.83      16.53       3.91
C      18.35       9.21      14.46
C      17.16      11.29      14.46
C      15.96       9.22      14.46
C      17.17      12.72      14.38
C      18.38      13.45      14.28
C      18.38      14.84      14.06
C      17.17      15.55      13.96
C      15.96      14.85      14.09
C      15.96      13.45      14.31
C      19.59       8.49      14.38
C      20.83       9.17      14.31
C      22.04       8.47      14.09
C      22.04       7.07      13.96
C      20.81       6.38      14.06
C      19.61       7.08      14.28
C      14.72       8.51      14.38
C      14.68       7.09      14.31
C      13.48       6.39      14.09
C      12.26       7.09      13.95
C      12.27       8.50      14.06
C      13.48       9.19      14.28
C      17.16       0.46       0.32
C      18.36       1.08       0.78
C      18.38       2.23       1.59
C      17.16       2.81       1.99
C      15.94       2.25       1.57
C      15.95       1.10       0.76
C      51.97      39.45      27.90
C      53.18      38.83      27.44
C      53.19      37.68      26.63
C      51.97      37.10      26.23
C      50.75      37.66      26.65
C      50.76      38.81      27.47
C      17.16      19.35      13.69
C      17.17      18.03      14.22
C      17.17      16.87      13.42
C      17.16      17.00      12.02
C      17.14      18.27      11.43
C      17.14      19.42      12.25
C      51.97      20.56      14.54
C      51.95      20.49      15.97
C      51.96      21.64      16.79
C      51.97      22.91      16.20
C      51.98      23.04      14.80
C      51.98      21.88      14.00
C       8.97       5.18      13.68
C      10.12       5.86      14.22
C      11.12       6.43      13.42
C      11.01       6.36      12.02
C       9.91       5.71      11.43
C       8.92       5.14      12.25
C      60.15      34.73      14.53
C      60.22      34.75      15.97
C      59.22      34.18      16.79
C      58.12      33.55      16.20
C      57.99      33.49      14.80
C      59.00      34.08      14.00
C      25.34      14.63       0.32
C      24.20      15.36       0.78
C      23.19      14.80       1.59
C      23.30      13.45       1.99
C      24.40      12.68       1.58
C      25.39      13.27       0.76
C      43.79      25.28      27.90
C      43.72      26.64      27.44
C      44.72      27.23      26.63
C      45.82      26.46      26.24
C      45.95      25.12      26.65
C      44.94      24.55      27.46
C       8.97      14.63       0.32
C      10.13      15.36       0.76
C      11.13      14.79       1.58
C      11.01      13.45       1.99
C       9.90      12.68       1.59
C       8.91      13.27       0.78
C      60.15      25.28      27.90
C      60.20      26.64      27.46
C      59.21      27.23      26.64
C      58.12      26.46      26.23
C      58.00      25.11      26.63
C      59.01      24.55      27.44
C      25.34       5.18      13.69
C      25.40       5.16      12.26
C      24.41       5.73      11.43
C      23.30       6.36      12.02
C      23.18       6.42      13.42
C      24.18       5.83      14.22
C      43.79      34.73      14.54
C      44.93      34.05      14.00
C      45.94      33.48      14.80
C      45.82      33.55      16.20
C      44.73      34.20      16.79
C      43.74      34.77      15.97
H      58.16      36.00      18.42
H      57.80      35.80      20.77
H      60.23      32.32      18.42
H      59.87      32.11      20.77
H      59.91      30.30      23.39
H      60.26      28.16      24.38
H      57.74      31.51      26.82
H      58.10      29.36      27.79
H      56.19      34.30      26.83
H      54.51      35.69      27.80
H      54.48      38.09      24.33
H      56.16      36.71      23.36
H      45.77      29.37      27.80
H      46.14      31.51      26.83
H      43.72      28.14      24.33
H      44.07      30.28      23.35
H      44.03      32.16      20.77
H      43.68      32.37      18.42
H      46.20      35.79      20.76
H      45.84      35.99      18.42
H      47.75      36.73      23.39
H      49.43      38.10      24.38
H      49.46      35.64      27.80
H      47.78      34.26      26.82
H      46.23      23.75      24.38
H      48.25      22.99      23.39
H      48.35      25.01      27.80
H      50.38      24.25      26.83
H      53.58      24.20      26.83
H      55.62      24.96      27.80
H      55.68      23.03      23.35
H      57.71      23.79      24.33
H      54.08      22.06      20.77
H      54.06      21.65      18.42
H      49.85      21.70      18.42
H      49.85      22.11      20.76
H      57.71      30.90      14.26
H      55.69      29.72      13.87
H      55.59      34.54      14.32
H      53.56      33.37      13.92
H      50.36      33.37      13.87
H      48.32      34.53      14.27
H      48.26      29.70      13.92
H      46.23      30.87      14.32
H      49.86      26.93      13.87
H      49.88      24.58      14.27
H      54.09      24.60      14.32
H      54.09      26.95      13.92
H      23.35       3.91       9.80
H      22.98       4.11       7.46
H      25.41       7.59       9.80
H      25.06       7.79       7.46
H      25.09       9.61       4.83
H      25.45      11.75       3.84
H      22.93       8.40       1.40
H      23.29      10.55       0.43
H      21.38       5.61       1.39
H      19.70       4.22       0.42
H      19.67       1.82       3.89
H      21.35       3.20       4.87
H      10.96      10.54       0.42
H      11.32       8.40       1.39
H       8.90      11.77       3.89
H       9.26       9.63       4.87
H       9.22       7.75       7.45
H       8.87       7.54       9.80
H      11.38       4.12       7.46
H      11.02       3.92       9.80
H      12.94       3.18       4.83
H      14.61       1.81       3.84
H      14.64       4.27       0.42
H      12.97       5.65       1.40
H      11.41      16.16       3.84
H      13.44      16.92       4.83
H      13.53      14.90       0.42
H      15.57      15.66       1.40
H      18.76      15.71       1.39
H      20.80      14.95       0.42
H      20.87      16.88       4.87
H      22.90      16.12       3.89
H      19.26      17.85       7.46
H      19.25      18.26       9.80
H      15.03      18.21       9.80
H      15.03      17.80       7.46
H      22.90       9.01      13.96
H      20.87      10.19      14.35
H      20.78       5.37      13.90
H      18.74       6.54      14.29
H      15.55       6.54      14.35
H      13.51       5.38      13.96
H      13.45      10.21      14.30
H      11.41       9.04      13.90
H      15.05      12.98      14.35
H      15.06      15.33      13.95
H      19.28      15.31      13.90
H      19.28      12.96      14.30
H      19.27       0.70       0.54
H      15.04       0.74       0.48
H      17.16       3.65       2.58
H      54.09      39.21      27.68
H      51.97      36.26      25.64
H      49.85      39.17      27.74
H      17.19      17.87      15.23
H      17.12      20.31      11.77
H      17.16      16.16      11.43
H      51.94      19.60      16.45
H      51.97      23.75      16.79
H      52.00      22.04      12.99
H      10.25       5.95      15.23
H       8.16       4.68      11.77
H      11.74       6.78      11.43
H      61.00      35.18      16.45
H      57.39      33.13      16.79
H      58.85      34.01      12.99
H      24.06      16.34       0.53
H      26.15      12.65       0.49
H      22.58      13.03       2.58
H      42.94      27.24      27.69
H      46.55      26.88      25.64
H      45.09      23.59      27.73
H      10.28      16.32       0.49
H       8.13      12.67       0.53
H      11.74      13.03       2.58
H      60.97      27.26      27.73
H      57.39      26.88      25.64
H      58.88      23.57      27.69
H      26.18       4.73      11.77
H      24.04       5.90      15.23
H      22.58       6.78      11.43
H      45.06      33.96      12.99
H      46.55      33.13      16.79
H      42.97      35.23      16.45
N      57.67      34.63      23.06
N      57.66      33.30      24.96
N      58.82      32.62      23.07
N      46.27      33.29      24.96
N      46.28      34.63      23.07
N      45.12      32.63      23.07
N      50.81      22.76      23.07
N      53.13      22.76      23.07
N      51.97      23.43      24.96
N      53.13      29.34      13.77
N      50.81      29.33      13.77
N      51.97      31.34      13.77
N      22.85       5.28       5.16
N      22.85       6.61       3.26
N      24.01       7.29       5.15
N      11.46       6.62       3.26
N      11.46       5.28       5.15
N      10.30       7.28       5.15
N      15.99      17.15       5.15
N      18.31      17.15       5.16
N      17.16      16.48       3.26
N      18.32      10.57      14.45
N      16.00      10.58      14.45
N      17.15       8.57      14.45
