98

V       6.62      10.09       8.68
V       3.08      -3.02       8.55
V       2.49      -6.20      17.17
V       6.03      13.27       0.06
H       1.45       1.50       8.44
H       4.99       5.57       8.79
H       0.82      -0.41      12.20
H       4.36       7.47       5.03
H       0.72      -0.23      14.27
H       4.26       7.29       2.96
H       1.76       5.23      13.98
H       5.30       1.84       3.25
H       0.73       7.82      10.77
H       0.92       6.86       9.22
H       6.35       7.15       9.92
H       7.05       4.89      10.36
H       6.83       5.84      11.87
H       2.21       6.25      12.03
H       2.53       5.36      10.54
H       4.27      -0.75       6.46
H       4.46       0.21       8.01
H       2.82      -0.09       7.31
H       3.51       2.18       6.87
H       3.29       1.23       5.36
H       5.75       0.82       5.21
H       6.07       1.71       6.69
H       1.89       3.59       9.50
H       5.42       3.48       7.73
H       0.40       8.76       0.34
H       3.94      -1.70      16.89
H       0.31       0.15      16.61
H       3.85       6.92       0.62
C       4.64       9.35      10.96
C       1.10      -2.29       6.27
C       4.64       7.93       7.60
C       1.10      -0.86       9.63
C       1.64       2.76      10.15
C       5.18       4.31       7.08
C       1.09       0.44      10.28
C       4.63       6.63       6.95
C       0.64       2.27      16.52
C       4.18       4.80       0.71
C       0.58       0.99      15.98
C       4.11       6.08       1.25
C       0.81       0.79      14.62
C       4.35       6.28       2.61
C       1.14       1.87      13.77
C       4.68       5.20       3.47
C       1.29       3.15      14.35
C       4.83       3.91       2.88
C       1.26       1.73      12.35
C       4.80       5.33       4.89
C       1.59       2.88      11.55
C       5.12       4.19       5.68
C       1.79       4.13      12.18
C       5.33       2.94       5.05
C       1.66       4.24      13.55
C       5.20       2.83       3.68
C       1.03       0.51      11.67
C       4.57       6.56       5.56
C       1.38       1.56       9.52
C       4.92       5.51       7.71
C       1.00       3.35      15.72
C       4.54       3.71       1.51
C       1.00      -1.37       3.73
C       4.54       8.44      13.50
C       1.04      -1.79       4.89
C       4.58       8.85      12.34
C       4.48       2.36       0.93
C       0.94       4.71      16.30
C       4.48      -5.47      14.89
C       0.94      12.54       2.34
C       1.83       5.41      11.40
C       0.39       5.71      10.97
C       0.34       6.97      10.16
C       5.37       1.66       5.83
C       3.93       1.35       6.26
C       3.88       0.09       7.07
O       3.49       8.52       7.82
O       7.03      -1.46       9.41
O       5.82       9.48      10.41
O       2.28      -2.42       6.82
O       5.83       8.37       7.89
O       2.29      -1.31       9.34
O       7.05      10.84       6.88
O       3.51      -3.78      10.36
O       4.68      -2.36       8.29
O       1.14       9.43       8.95
O       5.62       7.67      15.49
O       2.08      -0.60       1.74
O       3.28       1.87       0.72
O       6.82       5.20      16.51
O       3.29      -5.59      15.44
O       6.83      12.66       1.79
O       2.07       5.35      16.44
O       5.61       1.72       0.79
O       4.43      12.61       0.33
O       0.89      -5.54      16.90
