30

La       6.48       4.59       3.86
La       8.85       8.49       3.86
N       6.88       2.67       6.65
N       8.33       1.99       2.49
N       8.45      10.42       6.67
N       6.99      11.10       2.50
N      10.73       9.03       1.07
N      12.02       8.05       5.23
N       4.59       4.07       1.05
N       3.32       5.05       5.22
O       9.21       6.81       5.73
O       8.69       4.71       5.00
O       6.13       6.27       5.73
O       6.66       8.36       5.00
O       8.14       5.06       1.99
O       9.76       6.48       2.72
O       7.20       8.04       1.98
O       5.60       6.60       2.72
O       5.95       3.12       5.81
O       7.53       2.29       3.49
C       9.28       5.53       5.79
O       9.38       9.96       5.83
O       7.79      10.79       3.50
O       9.91       9.65       1.91
O      11.38       8.62       4.23
O       5.42       3.45       1.89
O       3.96       4.48       4.22
C       6.06       7.55       5.79
C       9.30       5.58       1.93
C       6.04       7.51       1.93
