178

Cu      14.33       5.03       3.62
Cu      13.59       2.70       2.91
Cu       8.44       7.46       8.54
Cu       8.80       1.70      15.86
Cu      11.20       1.26      16.58
Cu       9.41       8.04      10.94
H       4.36       4.47       7.30
H       9.11       2.77       0.40
H      10.11       5.79       4.68
H       5.10       1.15       9.96
H       2.59       0.62       6.53
H       6.39       4.31       3.37
H       4.89       1.97       0.09
H       7.13       4.31      11.86
H       5.95       6.12       7.56
H       7.62       2.68       4.53
H       9.26       1.99       4.63
H       7.49       1.96       8.46
H       7.24       1.15      10.01
H       5.74       6.58       3.27
H       9.10       7.95       5.63
H      10.98       3.54       6.45
H      10.12       5.02       6.93
H       8.60       2.42      12.11
H       9.78       3.64      11.61
H       4.69       5.79       5.40
H      10.96       1.92       1.95
H       9.58       2.96       9.24
H       9.63       1.39      10.09
H      15.44      10.72       1.00
H       8.04       7.64       3.38
H       7.95      10.46       2.46
H       6.84       8.38       1.59
H       7.97       4.03       6.53
H       8.86       2.56       6.96
H      16.61       8.49       0.88
H      13.97      10.24      12.18
H      13.25       5.25      19.08
H      10.10       5.79      14.80
H      16.56       8.03       9.53
H      18.21      10.00      12.96
H      13.15       8.38      16.12
H      15.93       8.60      19.40
H      12.81       7.72       7.63
H      11.77       9.61      11.92
H      14.02       6.52      14.96
H      13.86       4.75      14.86
H      14.71       6.30      11.03
H      15.55       6.14       9.48
H      11.46      10.02      16.21
H       8.67       7.69      13.86
H      11.69       3.96      13.03
H      10.77       5.41      12.56
H      13.79       5.53       7.38
H      12.15       5.07       7.88
H      12.65      10.57      14.09
H      13.12       3.22      17.54
H      12.85       4.92      10.25
H      14.21       4.14       9.39
H       3.25       3.40      18.48
H       9.44       8.48      16.11
H       6.99       9.89      17.03
H       9.35       9.89      17.89
H      12.66       6.85      12.96
H      13.55       5.38      12.53
H       4.66       1.31      18.60
C      11.66       4.41       4.21
C       7.03       2.26       0.15
C       9.29      10.11       8.76
C       4.24       3.42       7.57
C       7.89       3.57       2.00
C       8.24       5.38      10.42
C       8.10       2.85       0.82
C       9.04       4.25       2.68
C       9.35       2.72      18.39
C      10.26       4.71       4.76
C       4.89       2.90       8.69
C       4.65       1.57       9.06
C       3.22       1.26       7.14
C       2.77       3.14       5.54
C       5.49       3.17       1.78
C       3.42       2.60       6.78
C       6.58       3.74       2.47
C       5.74       3.79       9.55
C       4.11       3.41       2.29
C       5.72       2.42       0.63
C       7.72       4.05      10.97
C       3.81       0.76       8.30
C       6.35       6.45       6.61
C       8.65       2.89       4.81
C       7.62       2.06       9.54
C       6.26       6.72       4.22
C       8.13       7.47       5.52
C      10.13       4.19       6.22
C       8.89       3.09      11.29
C       5.67       6.27       5.41
C      11.44       0.95       1.85
C       9.07       2.32       9.98
C      16.46      10.60       1.34
C       7.52       7.31       4.28
C       6.91      10.46       2.15
C       6.28       9.31       1.67
C       8.81       3.39       6.24
C      17.13       9.38       1.27
C      10.59       3.77      15.28
C      14.67       6.85      19.34
C       6.68       8.54      10.73
C      14.95       9.86      11.92
C      13.11       6.71      17.49
C      11.34       7.24       9.07
C      13.64       6.18      18.67
C      11.97       6.00      16.80
C      13.17       5.01       1.10
C      10.99       5.15      14.73
C      15.11       9.04      10.80
C      16.39       8.62      10.42
C      17.34       9.75      12.35
C      15.89      11.02      13.94
C      14.58       8.63      17.70
C      16.06      10.19      12.71
C      13.58       7.94      17.02
C      13.92       8.71       9.94
C      15.02       9.97      17.20
C      15.14       8.08      18.86
C      12.76       7.08       8.52
C      17.50       8.98      11.19
C      11.29       9.41      12.88
C      13.35       5.71      14.68
C      14.56       6.23       9.94
C      11.09       9.62      15.27
C       9.55       8.32      13.97
C      11.51       5.02      13.27
C      13.06       5.60       8.19
C      11.76       9.94      14.08
C      13.76       2.34      17.64
C      13.65       5.08       9.51
C       2.87       2.44      18.14
C       9.98       8.79      15.21
C       7.49      10.81      17.34
C       8.79      10.82      17.82
C      12.83       5.80      13.24
C       3.64       1.28      18.22
N       7.56       7.04       6.66
N       6.91       3.27      10.03
N       9.20       4.01       4.02
N      12.72       0.88       2.25
N      10.20       8.62      12.82
N      13.83       7.43       9.46
N      12.10       5.75      15.47
N      13.21       1.18      17.24
O       8.66       9.34       7.95
O       8.70       6.16      11.31
O      11.86       3.24       3.75
O       2.25       2.30       4.74
O       2.80       4.41       5.38
O       8.22       5.58       9.16
O       9.72       9.80       9.91
O      10.53       2.27      18.23
O       3.24       2.50       2.10
O      12.51       5.35       4.33
O       3.92       4.54       2.88
O       8.37       2.56      17.58
O       5.36       4.94       9.84
O       9.79       5.01       2.05
O       7.65       8.74      11.54
O      10.44       7.21       8.18
O      11.53       3.04      15.73
O      16.88      11.09      14.75
O      14.75      11.60      14.11
O      11.18       7.35      10.33
O       6.75       8.01       9.57
O      13.01       3.76       1.25
O      16.24      10.31      17.38
O       9.36       3.46      15.16
O      14.12      10.66      16.61
O      13.77       5.80       1.90
O      13.09       9.58       9.64
O      10.94       5.70      17.44
