66

Mn      21.20      18.47      26.29
C      17.04      19.46      29.56
Mn      17.39      16.69      28.72
Mn      24.86      15.48      25.43
C      18.99      19.12      27.96
C      19.26      15.85      26.89
Mn      22.23      10.27      31.08
Mn      18.57      13.26      31.93
Mn      26.04      12.04      28.65
N      15.96      16.91      26.94
N      20.89      11.44      31.87
N      20.04      12.06      30.94
N      20.74       8.49      31.18
N      17.63      14.49      30.77
N      18.33      15.68      30.50
N      24.69      10.93      29.50
N      23.87      11.60      30.42
C      22.34      10.03      33.95
N      27.47      11.83      30.43
C      20.50      11.59      33.15
C      20.30      11.66      29.71
O      20.52      18.85      24.61
C      21.16       7.21      31.24
O      22.15      17.90      27.91
O      23.97      16.41      23.94
O      27.37      13.41      28.04
C      19.41       8.73      31.18
O      16.68      18.18      29.59
C      16.09      12.03      30.99
O      18.31      15.34      27.63
O      19.96      19.66      27.28
C      27.82      12.95      31.08
C      27.73      10.64      31.01
O      26.25      16.73      25.61
C      16.46      14.39      30.12
C      19.44      15.74      31.19
C      26.39       9.27      27.81
O      23.68      13.95      25.31
C      24.44       9.61      29.41
C      24.17      12.88      30.48
N      22.69      20.24      26.19
O      22.91       9.88      32.76
O      19.46      12.33      33.43
O      21.28      10.84      29.46
O      17.18      12.00      31.76
C      21.09      18.71      23.42
O      16.06      15.33      29.33
O      19.75      14.79      32.06
O      23.47       9.07      30.08
O      26.75      10.56      27.78
O      25.12      13.40      29.74
C      22.93      17.14      24.22
C      23.13      17.08      27.66
C      22.27      21.52      26.13
C      26.97      14.35      27.25
C      24.01      20.01      26.19
C      15.61      15.78      26.29
C      27.34      16.70      26.38
C      15.70      18.09      26.36
N      22.54      17.29      25.50
N      23.39      16.67      26.43
C      23.99      13.00      26.18
N      25.80      14.24      26.60
N      25.10      13.06      26.87
N      18.74      17.81      27.87
N      19.56      17.13      26.95
