66

C      18.75      27.69      25.98
C      17.92      26.15      21.53
Mn      16.84      26.32      24.57
Mn      20.50      25.46      27.56
C      19.67      26.22      23.04
Mn      13.03      28.74      26.36
C      22.99      26.41      26.34
C      11.25      26.31      27.26
C      18.57      24.25      25.90
N      18.18      25.52      25.75
N      19.03      26.46      26.37
N      18.34      26.23      22.81
N      21.44      26.63      28.80
N      20.74      26.90      29.98
N      14.38      27.88      25.25
N      15.19      26.97      25.92
C      22.62      27.27      28.70
Mn      21.67      28.67      31.01
C      19.64      26.20      30.04
C      11.34      26.38      24.95
Mn      14.19      31.96      29.81
C      12.68      29.57      23.59
Mn      17.85      31.10      32.80
O      20.76      29.76      29.65
C      14.62      27.98      23.93
C      14.89      26.91      27.20
N      23.10      30.45      31.23
N      16.52      31.89      31.62
N      15.67      30.96      31.00
N      16.36      31.19      34.56
N      13.26      30.79      28.57
N      13.95      30.51      27.39
N      20.32      29.53      32.12
N      19.51      30.45      31.45
C      17.95      33.98      33.05
C      16.13      33.17      31.47
C      15.94      29.72      31.39
C      16.78      31.26      35.84
O      16.18      24.63      24.14
O      19.60      23.96      26.64
O      17.77      27.94      25.16
C      15.03      31.19      34.32
O      21.90      25.64      26.32
O      23.03      28.04      29.65
O      19.34      25.32      29.10
O      12.32      29.61      24.88
O      15.59      27.30      23.39
O      13.94      27.65      27.72
C      11.71      31.00      31.02
C      23.45      31.11      30.10
C      12.08      30.15      28.67
C      15.06      31.22      27.33
C      23.36      31.03      32.41
C      22.01      27.84      33.78
C      20.07      29.44      33.44
C      19.81      30.51      30.17
C      16.75      23.44      24.31
O      18.51      32.78      33.22
O      15.10      33.45      30.73
O      16.93      29.48      32.21
O      12.80      31.78      31.05
O      11.67      29.37      27.72
O      15.36      32.09      28.27
O      22.37      27.80      32.49
O      19.11      30.11      33.98
N      11.60      26.96      26.14
