66

Mn      25.58      16.73      18.43
Mn      29.20      17.64      15.43
N      26.91      17.54      17.26
N      27.76      16.61      16.64
N      27.06      16.84      20.21
N      30.14      16.46      14.21
N      29.45      16.17      13.03
N      23.10      15.17      17.77
N      23.92      16.09      17.10
Mn      21.75      14.32      16.67
N      20.30      16.09      16.89
C      32.19      11.96      12.91
C      32.10      12.03      10.61
Mn      22.94      11.07      13.26
Mn      30.39      14.38      12.02
Mn      26.57      11.97      10.25
C      26.69       9.10      10.00
C      24.86       9.89      11.58
C      24.64      13.33      11.65
C      25.51      11.81       7.20
C      23.76      11.86       8.71
C      20.45      12.01      12.03
N      31.84      12.61      11.79
N      25.24      11.17      11.43
N      24.38      12.10      12.05
N      25.09      11.86       8.48
N      22.00      12.25      14.48
N      22.70      12.54      15.66
N      29.04      13.53      10.91
C      23.81      11.85      15.73
C      20.82      12.89      14.37
N      28.23      12.62      11.58
C      30.73      15.22       9.25
C      28.78      13.64       9.60
C      28.53      12.55      12.86
C      19.95      16.75      15.77
C      20.04      16.67      18.08
C      25.46      19.61      18.68
O      24.89      18.41      18.83
O      28.31      19.12      16.36
O      26.52      15.12      17.86
C      27.28      18.82      17.11
C      27.50      15.38      17.04
O      30.62      17.49      16.65
O      28.02      17.74      13.89
O      24.34      15.73      19.62
O      31.73      15.03      13.37
C      26.64      16.90      21.49
O      21.05      13.45      18.16
O      22.65      15.42      15.31
C      28.38      16.85      19.98
C      31.69      16.70      16.65
C      31.32      15.81      14.31
C      28.33      16.86      12.96
C      21.41      13.49      19.44
C      23.36      15.07      19.09
C      23.61      16.16      15.82
O      27.25      10.30       9.85
O      23.84       9.59      12.33
O      25.62      13.58      10.83
O      21.53      11.21      12.03
O      20.41      13.67      15.31
O      24.12      10.97      14.79
O      31.09      15.26      10.53
O      27.80      12.97       9.07
O      29.49      13.29      13.37
