26

Zn       9.97       2.36      34.59
Zn      11.34       5.02      33.05
Zn       9.01       5.34      34.89
Zn       7.33       2.64      36.07
C       6.44       5.37      36.17
C      11.64       5.79      36.02
C       8.76       0.23      36.43
C      12.70       2.41      33.40
C       7.52       1.61      33.24
C      10.12       7.68      33.30
O       7.66       0.73      35.96
O       9.93       0.68      35.98
O       9.62       4.15      33.47
O      12.37       3.40      32.60
O       8.80       1.31      33.37
O      11.94       2.07      34.43
O       7.03       2.61      33.94
H       9.61       3.53      36.80
O       9.01       7.06      33.63
O       9.11       3.52      35.94
O       6.05       4.12      36.14
O      10.38       6.17      36.05
O       7.16       5.85      35.19
O      11.25       7.01      33.22
O      12.06       4.94      35.11
H       8.99       4.12      32.70
