26

Zn       9.11       5.25      22.81
Zn       7.44       2.92      21.01
Zn       9.68       2.17      22.89
O       9.15       6.82      24.25
O       9.26       3.54      21.57
C      10.27       7.27      24.76
O      10.53       6.17      21.84
O       7.34       5.88      22.33
C      11.75       5.71      21.75
C       6.92       5.75      21.10
Zn      11.39       4.52      24.63
O       9.59       3.88      24.13
O       6.46       4.60      20.68
O       8.15       1.37      23.85
O       7.41       0.96      21.02
C       8.51       0.27      20.83
O       6.63       2.88      23.03
O       9.62       0.62      21.42
H       9.94       3.55      20.84
H       8.96       3.87      24.89
O      11.47       1.47      23.29
O      12.47       2.83      24.82
C      12.10       1.63      24.43
C       6.98       1.98      23.93
O      11.34       6.49      24.80
O      12.15       4.75      22.57
