24

O       3.07      12.59       8.16
O       5.10      10.25      18.82
O       3.94      14.65       8.49
O       6.03      12.25      19.22
H       3.65      10.31      16.71
H       6.66      13.37      16.98
H       6.31      13.81      14.51
H       3.33      10.74      12.67
H       2.85      11.25      10.23
H       5.35      14.73      10.63
C       4.81      12.27      14.35
C       4.26      11.09      16.25
C       5.19      11.80      17.03
C       5.94      12.81      16.40
C       5.75      13.05      15.05
C       5.44      11.42      18.45
C       4.57      12.49      12.90
C       3.75      11.61      12.17
C       3.49      11.90      10.84
C       4.04      13.05      10.26
C       4.88      13.84      11.06
C       3.67      13.46       8.87
N       4.07      11.31      14.94
N       5.16      13.57      12.34
