18

H       9.02      10.11       5.18
H       5.33      11.92       3.89
H       5.78       7.66       3.72
C       7.48       8.75       4.50
C       8.02      10.02       4.76
C       7.26      11.17       4.53
C       5.96      11.05       4.03
C       5.46       9.79       3.72
C       6.20       8.64       3.94
C       8.25       7.51       4.84
C       7.77      12.55       4.80
N       4.10       9.70       3.17
O       7.72       6.37       4.58
O       9.37       7.64       5.42
O       9.02      12.79       4.78
O       6.85      13.39       5.07
O       3.50      10.75       2.90
O       3.63       8.56       3.02
