368

C      11.90      10.11       3.58
C      13.09      10.60       3.02
C      14.33       9.92       3.06
C      14.36       8.77       3.90
C      13.22       8.30       4.64
C      11.99       8.97       4.39
C      38.51      18.65      19.93
C      39.70      18.16      20.49
C      40.93      18.85      20.45
C      40.96      19.99      19.61
C      39.82      20.46      18.87
C      38.59      19.80      19.11
C      25.21       6.22      16.02
C      26.40       5.66      15.52
C      27.63       5.69      16.21
C      27.66       6.53      17.36
C      26.52       7.27      17.83
C      25.29       7.03      17.16
C      25.20      22.55       7.49
C      26.40      23.11       7.98
C      27.63      23.07       7.29
C      27.66      22.23       6.14
C      26.52      21.49       5.67
C      25.29      21.74       6.34
C      41.21      22.55      16.01
C      40.01      23.11      15.52
C      38.78      23.07      16.21
C      38.75      22.23      17.36
C      39.89      21.49      17.83
C      41.12      21.74      17.16
C      14.60       6.21       7.49
C      13.41       5.65       7.98
C      12.17       5.69       7.29
C      12.14       6.53       6.14
C      13.28       7.27       5.67
C      14.51       7.02       6.34
C      27.91      10.11      19.93
C      26.71      10.60      20.49
C      25.48       9.92      20.45
C      25.45       8.77      19.61
C      26.59       8.30      18.87
C      27.82       8.97      19.12
C      27.90      18.65       3.58
C      26.71      18.16       3.01
C      25.48      18.84       3.05
C      25.45      19.99       3.90
C      26.59      20.46       4.64
C      27.82      19.79       4.39
C      19.47      14.92      22.04
C      20.34      13.85      22.04
C      20.59      13.47      23.37
C      19.22      15.30      23.37
C      45.03      16.41      23.78
C      44.90      16.83      25.14
C      44.89      16.83      27.40
C      44.14      17.92      26.96
C      44.19      17.95      25.59
C      31.78      16.42       0.17
C      32.58      15.31       0.56
C       7.22      13.45       0.56
C      33.56      13.79       1.88
C      32.85      14.96       1.88
C       8.02      12.34       0.17
C      21.52      11.94      27.40
C      21.51      11.94      25.14
C      22.23      10.83      25.59
C      22.28      10.86      26.96
C      21.39      12.36      23.78
C      22.33      11.77      22.85
C      23.70      11.90      23.15
C      24.67      11.17      22.45
C      24.38      10.44      21.27
C      23.01      10.35      20.93
C      22.00      10.97      21.72
C       8.85      11.75       1.19
C       9.75      12.58       1.90
C      10.57      12.07       2.91
C      10.67      10.67       3.12
C       9.72       9.84       2.46
C       8.79      10.38       1.55
C      30.96      17.01       1.19
C      30.05      16.18       1.89
C      29.23      16.69       2.90
C      29.14      18.09       3.11
C      30.09      18.92       2.46
C      31.02      18.38       1.55
C      44.08      17.00      22.85
C      42.71      16.87      23.15
C      44.41      17.80      21.72
C      43.41      18.42      20.93
C      42.03      18.32      21.26
C      41.74      17.60      22.45
C      19.47      13.84       1.46
C      20.34      14.91       1.46
C      20.59      15.29       0.14
C      19.22      13.47       0.14
C      31.72      12.36      28.31
C      31.60      11.94      26.95
C      31.59      11.94      24.69
C      30.83      10.86      25.13
C      30.88      10.83      26.50
C      31.78      12.34      23.34
C      32.58      13.45      22.95
C      33.83      15.32      22.95
C      33.56      14.97      21.62
C      32.85      13.79      21.62
C      34.63      16.43      23.34
C      34.82      16.83      24.69
C      34.81      16.83      26.94
C      35.52      17.95      26.50
C      35.58      17.92      25.12
C      34.69      16.41      28.31
C      22.33      16.99       0.66
C      23.70      16.87       0.35
C      24.67      17.60       1.05
C      24.38      18.32       2.24
C      23.00      18.41       2.57
C      22.00      17.79       1.78
C      35.45      17.01      22.31
C      36.36      16.18      21.61
C      37.18      16.69      20.60
C      37.27      18.09      20.39
C      36.32      18.92      21.04
C      35.39      18.38      21.95
C      30.96      11.75      22.31
C      30.06      12.58      21.61
C      29.23      12.07      20.60
C      29.14      10.67      20.39
C      30.09       9.84      21.04
C      31.02      10.39      21.96
C      17.48      11.77       0.66
C      16.10      11.90       0.36
C      17.81      10.96       1.78
C      16.80      10.35       2.57
C      15.42      10.44       2.24
C      15.13      11.17       1.06
C      32.77      24.67      11.21
C      33.64      24.67      12.29
C      33.89      25.99      12.66
C      32.52      25.99      10.84
C      31.72      26.41       9.73
C      31.60      27.77       9.31
C      18.29       1.45       9.31
C      17.52       1.01       8.22
C      30.88      28.21       8.19
C      18.48       2.80       9.71
C      19.28       3.19      10.82
C      20.53       3.19      12.68
C      20.26       4.52      12.34
C      19.55       4.52      11.16
C      21.34       2.80      13.79
C      21.53       1.45      14.19
C      34.82      27.77      14.19
C      35.54      28.22      15.30
C      22.29       1.01      15.27
C      34.69      26.41      13.77
C      35.63      25.47      14.36
C      37.01      25.78      14.23
C      37.98      25.08      14.96
C      37.69      23.89      15.69
C      36.31      23.56      15.78
C      35.30      24.35      15.17
C      22.16       3.83      14.38
C      23.06       4.54      13.54
C      23.88       5.55      14.06
C      23.97       5.75      15.45
C      23.03       5.10      16.28
C      22.10       4.19      15.74
C      17.65       3.83       9.12
C      16.75       4.53       9.96
C      15.93       5.54       9.45
C      15.83       5.75       8.05
C      16.78       5.10       7.22
C      17.71       4.19       7.76
C      30.78      25.47       9.14
C      29.40      25.78       9.26
C      31.11      24.35       8.34
C      30.10      23.56       7.72
C      28.72      23.89       7.81
C      28.43      25.08       8.54
C      32.77       4.09      12.29
C      33.64       4.09      11.21
C       7.28       2.77      10.84
C      32.52       2.77      12.67
C      31.72       2.36      13.78
C      31.59       0.99      14.19
C      44.89      27.32      14.19
C      44.12      27.75      15.28
C      30.87       0.55      15.31
C      45.08      25.96      13.79
C      19.28      25.57      12.69
C      20.53      25.57      10.82
C      20.26      24.25      11.17
C      19.55      24.25      12.34
C      21.33      25.96       9.71
C      21.52      27.31       9.31
C       8.21       0.99       9.31
C       8.93       0.55       8.20
C      22.28      27.75       8.23
C       8.08       2.36       9.73
C       9.03       3.29       9.14
C      10.40       2.98       9.27
C      11.37       3.69       8.54
C      11.08       4.87       7.82
C       9.70       5.21       7.72
C       8.70       4.41       8.34
C      22.15      24.94       9.12
C      23.06      24.24       9.96
C      23.88      23.23       9.44
C      23.97      23.01       8.05
C      23.02      23.67       7.22
C      22.09      24.58       7.76
C      44.26      24.94      14.38
C      43.35      24.23      13.55
C      42.53      23.22      14.06
C      42.44      23.01      15.45
C      43.38      23.67      16.28
C      44.31      24.58      15.75
C      30.78       3.29      14.36
C      29.40       2.99      14.24
C      31.11       4.41      15.17
C      30.10       5.21      15.79
C      28.72       4.88      15.69
C      28.43       3.69      14.96
H      15.24       8.26       3.95
H      11.13       8.67       4.86
H      13.04      11.48       2.50
H      41.84      20.51      19.55
H      37.73      20.09      18.64
H      39.65      17.29      21.01
H      28.54       6.58      17.88
H      24.43       7.49      17.46
H      26.35       5.13      14.65
H      28.54      22.18       5.63
H      24.43      21.27       6.05
H      26.35      23.63       8.85
H      37.87      22.19      17.88
H      41.98      21.27      17.46
H      40.06      23.63      14.65
H      11.27       6.58       5.63
H      15.37       7.49       6.05
H      13.46       5.13       8.85
H      24.57       8.26      19.56
H      28.68       8.67      18.65
H      26.77      11.48      21.02
H      24.57      20.51       3.95
H      28.68      20.09       4.86
H      26.76      17.29       2.49
H      40.79      17.56      22.84
H      42.41      16.34      23.97
H      43.69      18.94      20.10
H      18.79      17.94      21.47
H      19.13      15.38      21.20
H      20.68      13.39      21.20
H      19.90      14.38      25.07
H      19.91      14.39      27.42
H      43.71      18.64      25.01
H      43.62      18.59      27.53
H      29.97      15.18       1.67
H      28.55      16.05       3.34
H      31.66      19.01       1.07
H      30.03      19.93       2.56
H      32.56      15.45       2.73
H      33.85      13.30       2.73
H      22.71      10.13      25.02
H      22.79      10.18      27.53
H       9.82      13.58       1.67
H      11.24      12.71       3.34
H       8.14       9.75       1.07
H       9.77       8.83       2.55
H      21.02      10.83      21.47
H      22.72       9.83      20.10
H      25.62      11.20      22.84
H      24.01      12.43      23.97
H      14.19      11.21       0.67
H      29.10      12.44      28.12
H      17.09       9.83       3.41
H      18.79      10.82       2.03
H      19.13      13.38       2.31
H      20.69      15.37       2.31
H      33.20      14.39      27.02
H      33.20      14.39      24.67
H      30.40      10.13      27.07
H      30.31      10.18      24.56
H      29.98      13.58      21.83
H      28.56      12.71      20.16
H      31.66       9.75      22.45
H      30.03       8.83      20.96
H      32.56      13.30      20.77
H      33.86      15.45      20.77
H      36.00      18.64      27.07
H      36.09      18.59      24.56
H      36.43      15.19      21.84
H      37.86      16.06      20.17
H      34.75      19.01      22.43
H      36.38      19.94      20.95
H      21.02      17.93       2.03
H      22.72      18.93       3.41
H      25.62      17.57       0.66
H      37.31      16.34      28.11
H      27.49      25.46       8.58
H      29.10      26.60       9.80
H      30.39      22.72       7.20
H      32.09      24.10       8.20
H      32.42      23.83      10.76
H      33.98      23.83      12.75
H      33.21      27.70      11.75
H      19.91       1.47      11.75
H      30.40      27.64       7.50
H      17.01       1.58       7.55
H      16.67       4.30      10.95
H      15.25       5.98      10.08
H      18.35       3.70       7.13
H      16.72       5.19       6.20
H      19.25       5.37      10.68
H      20.55       5.37      12.82
H      36.02      27.64      16.00
H      22.81       1.58      15.94
H      23.13       4.31      12.55
H      24.55       5.99      13.42
H      21.46       3.70      16.37
H      23.08       5.19      17.30
H      34.32      24.11      15.31
H      36.02      22.73      16.30
H      38.92      25.46      14.92
H      37.31      26.59      13.69
H      27.49       3.30      14.93
H      29.10       2.17      13.70
H      30.39       6.04      16.30
H      32.09       4.66      15.31
H      32.42       4.94      12.75
H       7.38       4.94      10.76
H       6.60       1.06      11.75
H      19.90      27.29      11.75
H      30.39       1.12      16.00
H      43.61      27.18      15.95
H      43.28      24.46      12.55
H      41.86      22.78      13.42
H      44.95      25.07      16.38
H      43.33      23.57      17.30
H      19.26      23.40      12.83
H      20.55      23.40      10.68
H       9.41       1.12       7.50
H      22.79      27.18       7.55
H      23.13      24.46      10.95
H      24.55      22.79      10.08
H      21.45      25.06       7.13
H      23.08      23.57       6.20
H       7.71       4.66       8.20
H       9.42       6.04       7.20
H      12.32       3.30       8.58
H      10.70       2.16       9.80
N      19.90      14.38      24.11
N      45.34      16.22      26.27
N      46.51      14.39      28.38
N      21.07      12.55      26.27
N      33.20      14.39      27.98
N      32.04      12.55      25.82
N      33.20      14.38      23.71
N      34.37      16.22      25.82
N      33.21      26.74      11.75
N      18.74       0.32       9.92
N      19.91       2.43      11.75
N      21.07       0.32      13.58
N       6.60       2.02      11.75
N      45.34      28.44      13.58
N      19.90      26.33      11.75
N      21.07      28.44       9.92
