13

C       8.52      13.48       0.59
C       8.47      14.11       1.84
C       7.15      14.30       2.29
O      10.83      13.63      -0.00
O       9.44      12.44      -1.29
O       4.20      14.50       2.46
O       4.01      13.48       0.51
S       6.94      13.12      -0.02
C       9.68      13.17      -0.25
H       9.35      14.42       2.38
H       6.87      14.77       3.23
C       4.75      13.92       1.45
C       6.21      13.83       1.37
