13

O       5.25       9.85      14.19
H       3.36      11.24      17.61
C       4.70      10.04      15.36
H       2.53      13.76      17.31
C       4.16      11.37      15.59
C       3.40      13.70      15.32
O       3.29      15.17      13.49
O       2.48      15.88      15.49
C       3.08      13.19      16.57
C       3.51      11.85      16.73
S       4.22      12.55      14.33
O       4.60       9.14      16.25
C       3.03      15.01      14.74
