13

O       4.47       6.02      16.43
O       2.30       0.90      14.56
C       3.81       2.47      13.71
C       4.67       4.64      14.50
C       5.23       4.26      13.28
O       5.84       6.70      14.81
S       3.54       3.47      15.09
O       3.35       0.46      12.57
H       5.03       2.51      11.92
C       4.74       3.02      12.83
C       3.09       1.18      13.61
C       4.97       5.82      15.30
H       5.97       4.85      12.76
