13

C       9.66      21.80      19.09
C       8.01      23.63      18.32
C       9.89      19.00      16.63
O      10.76      18.11      17.11
C       8.73      22.34      18.21
O       8.26      24.35      19.35
S       8.46      21.35      16.83
C       9.59      20.18      17.42
C      10.15      20.56      18.64
O       7.22      23.92      17.37
O       9.39      18.79      15.49
H       9.95      22.31      20.00
H      10.89      19.96      19.17
