224

Cr      14.33       8.23       6.70
Cr      10.94       8.29       6.70
Cr      12.58       5.33       6.70
Cr       8.02       2.69      20.10
Cr       4.63       2.63      20.10
Cr       6.27       5.60      20.10
H       7.85       7.02      23.51
H       2.62       3.29      16.70
H       8.46       0.62      23.51
H       7.85       7.02      16.70
H       2.61       3.29      23.51
H       8.46       0.62      16.70
H      14.16       3.91      10.10
H       8.92       7.64       3.30
H      14.77      10.31      10.10
H      14.16       3.91       3.30
H       8.92       7.64      10.10
H      14.77      10.31       3.30
H       7.61       8.33      25.59
H       1.60       2.42      14.62
H       9.72       0.17      25.59
H       7.61       8.33      14.62
H       1.59       2.42      25.59
H       9.72       0.17      14.62
H      13.93       2.59      12.18
H       7.90       8.50       1.22
H      16.03      10.76      12.18
H      13.92       2.59       1.22
H       7.90       8.50      12.18
H      16.03      10.76       1.22
H      11.27       4.06      22.20
H      12.11       3.72      23.72
H      10.80       2.59      23.17
H      16.08       7.73      18.01
H       4.96       8.06      17.03
H      15.95       8.62      16.49
H      10.49      10.06      22.20
H       9.78       9.51      23.72
H       3.16       0.28      23.17
H      11.28       4.06      18.00
H      10.80       2.59      17.03
H      12.11       3.72      16.48
H       4.97       8.05      23.17
H      16.08       7.74      22.20
H      15.96       8.62      23.72
H      10.49      10.06      18.00
H       3.16       0.28      17.03
H       9.78       9.51      16.48
H      17.09       8.34       9.77
H       5.79       7.22      10.33
H       4.97       6.88       8.81
H      11.28       2.87       3.63
H       9.78       3.19       4.60
H       9.65       2.30       3.08
H       4.18       0.87       8.80
H       9.47      10.65       9.77
H       3.48       1.42      10.32
H       4.97       6.87       4.60
H       5.80       7.21       3.08
H      17.10       8.33       3.63
H      11.28       2.87       9.77
H       9.65       2.30      10.32
H       9.78       3.19       8.80
H       4.18       0.87       4.60
H       3.48       1.42       3.08
H       9.47      10.65       3.63
H      11.19       2.58      25.61
H      17.39       8.40      14.60
H       9.26      10.87      25.61
H      11.19       2.59      14.60
H      17.40       8.40      25.61
H       9.26      10.87      14.60
H       4.86       8.35      12.21
H      11.10       2.53       1.19
H       2.95       0.05      12.21
H       4.88       8.34       1.20
H      11.10       2.53      12.21
H       2.95       0.05       1.20
C      12.53       9.85       4.78
C      10.44       5.92       8.62
C      14.89       6.08       4.78
C      12.53       9.85       8.62
C      10.44       5.92       4.78
C      14.89       6.08       8.62
C       6.22       1.07      18.18
C       4.13       5.00      22.02
C       8.58       4.85      18.18
C       6.22       1.07      22.02
C       4.13       5.00      18.18
C       8.58       4.85      22.02
C       9.47       5.51       0.70
C      15.73       5.45      12.70
C      12.65      10.90       0.70
C       9.47       5.51      12.70
C      15.73       5.45       0.70
C      12.65      10.90      12.70
C       3.16       5.42      14.11
C       9.42       5.48      26.10
C       6.34       0.02      14.10
C       3.16       5.42      26.10
C       9.42       5.48      14.10
C       6.34       0.02      26.10
C       8.31       7.64       0.69
C      14.46       3.37      12.71
C      15.08      10.84       0.69
C       8.30       7.64      12.71
C      14.46       3.37       0.69
C      15.08      10.84      12.71
C       2.00       3.28      14.09
C       8.15       7.55      26.11
C       8.77       0.09      14.10
C       2.00       3.28      26.11
C       8.15       7.55      14.10
C       8.77       0.09      26.11
C       9.17       6.71       2.78
C      14.83       4.58      10.62
C      13.85      10.56       2.78
C       9.17       6.71      10.62
C      14.83       4.58       2.78
C      13.85      10.56      10.62
C       2.86       4.21      16.18
C       8.52       6.34      24.02
C       7.54       0.37      16.18
C       2.86       4.21      24.02
C       8.53       6.34      16.18
C       7.54       0.37      24.02
C       9.14       5.29      23.32
C       3.46       5.27      16.89
C       6.32       0.36      23.32
C       9.14       5.29      16.88
C       3.46       5.27      23.32
C       6.32       0.36      16.88
C      15.45       5.64       9.92
C       9.77       5.66       3.48
C      12.63      10.56       9.92
C      15.45       5.64       3.48
C       9.77       5.66       9.92
C      12.63      10.56       3.48
C       8.95       6.62       1.40
C      15.03       4.45      12.00
C      13.87      10.79       1.40
C       8.95       6.62      12.00
C      15.03       4.45       1.40
C      13.87      10.79      12.00
C       2.64       4.31      14.80
C       8.72       6.48      25.40
C       7.56       0.14      14.80
C       2.64       4.31      25.40
C       8.72       6.48      14.80
C       7.56       0.13      25.40
C      10.00       4.42       2.81
C       3.78       6.45      10.59
C       5.14       0.05       2.81
C      10.00       4.42      10.59
C       3.78       6.45       2.81
C       5.14       0.05      10.59
C      16.30       6.50      16.22
C      10.09       4.48      23.99
C      11.45      10.87      16.22
C      16.31       6.50      23.99
C      10.09       4.48      16.22
C      11.45      10.87      23.99
C      10.02       4.42       1.41
C       3.77       6.48      11.99
C       5.12       0.04       1.41
C      10.02       4.42      11.99
C       3.78       6.47       1.41
C       5.12       0.04      11.99
C      16.32       6.51      14.81
C      10.09       4.45      25.39
C      11.43      10.89      14.81
C      16.33       6.51      25.39
C      10.09       4.45      14.81
C      11.43      10.89      25.39
C      10.70       3.41      26.11
C      16.92       7.57      14.10
C      10.22      10.88      26.11
C      10.70       3.41      14.09
C      16.93       7.56      26.11
C      10.22      10.88      14.09
C       4.38       7.52      12.71
C      10.63       3.37       0.69
C       3.91       0.04      12.71
C       4.39       7.52       0.69
C      10.63       3.37      12.71
C       3.91       0.04       0.69
C      11.12       3.66      23.22
C      16.50       7.80      16.98
C      10.23      10.40      23.22
C      11.12       3.66      16.98
C      16.51       7.80      23.22
C      10.23      10.40      16.98
C       4.80       7.28       9.83
C      10.20       3.13       3.58
C       3.92       0.53       9.82
C       4.81       7.27       3.58
C      10.20       3.13       9.82
C       3.92       0.53       3.58
O      15.25       7.21       5.22
O      11.36       9.61       8.18
O      11.24       5.04       5.22
O      15.25       7.21       8.18
O      11.36       9.61       5.22
O      11.24       5.04       8.18
O       8.95       3.71      18.62
O       5.05       1.32      21.58
O       4.93       5.89      18.62
O       8.95       3.71      21.58
O       5.05       1.32      18.62
O       4.93       5.89      21.58
O      13.57       9.30       5.31
O      10.39       7.10       8.09
O      13.89       5.45       5.31
O      13.57       9.30       8.09
O      10.39       7.10       5.31
O      13.89       5.45       8.09
O       7.26       1.62      18.71
O       4.08       3.83      21.49
O       7.58       5.47      18.71
O       7.26       1.62      21.49
O       4.08       3.83      18.71
O       7.58       5.47      21.49
O      12.62       7.28       6.70
O       6.31       3.64      20.10
