22

O       5.89       9.66      11.00
C       4.28       7.70      14.21
C       3.48       8.42      15.07
C       3.12       9.74      14.87
C       4.36       9.70      12.79
C       4.54       8.29      12.97
H       5.12       7.72      12.25
C       3.80       8.64      16.47
C       3.32      10.04      16.31
H       4.90       8.62      16.63
C       3.68      10.47      13.83
H       3.19       7.97      17.09
H       2.43      10.25      16.93
H       4.11      10.78      16.43
C       5.11      10.32      11.66
H       5.06      11.36      11.41
C       5.07       6.56      14.79
C       3.57      11.97      13.92
O       3.35      12.57      15.10
O       6.08       6.08      14.17
O       4.79       6.21      16.00
O       4.29      12.63      13.06
