22

O       7.66       7.78       6.71
C       5.28      10.60       4.49
C       4.24      10.03       3.80
C       3.88       8.72       3.99
C       5.84       8.38       5.36
C       6.12       9.77       5.26
H       7.03      10.17       5.70
C       4.33       9.86       2.34
C       3.82       8.47       2.54
H       5.39       9.89       2.04
C       4.65       7.90       4.78
H       3.70      10.55       1.77
H       2.80       8.30       2.15
C       6.81       7.42       5.92
H       4.56       7.69       2.26
H       6.77       6.37       5.66
C       5.61      11.95       4.10
C       4.10       6.58       5.00
O       3.27       6.16       4.13
O       6.10      12.65       5.06
O       4.80      12.52       3.23
O       4.21       6.10       6.17
