22

O       1.49      10.64       2.23
C      -0.10       8.17       5.37
C      -0.96       8.85       6.22
C      -1.27      10.17       6.03
C       0.32      10.30       4.22
C       0.57       8.91       4.38
H       1.27       8.41       3.74
C      -0.79       9.03       7.68
C      -1.17      10.47       7.48
H       0.27       8.89       7.95
C      -0.68      10.90       5.01
H      -1.53       8.45       8.27
H      -2.16      10.73       7.91
H      -0.34      11.18       7.72
C       1.11      11.11       3.29
H       1.32      12.15       3.51
C       0.09       6.74       5.58
C      -1.36      12.13       4.64
O      -2.22      12.54       5.48
O       0.51       6.05       4.55
O      -0.78       6.18       6.38
O      -1.29      12.60       3.44
