28

C       7.29       7.85       0.15
C       7.55      10.62       0.29
O      11.37       6.74       1.66
O      11.45      11.21      -0.27
C       8.36       8.43       0.81
C       8.45       9.79       0.93
C       6.39      10.08      -0.25
C       6.16       8.68      -0.15
C       9.84       8.26       0.70
C       9.94       9.76       0.86
O       6.06      11.62      -1.98
O       4.48      11.47      -0.41
O       4.53       6.91       0.07
O       3.80       8.98      -0.17
H      10.19       7.91      -0.29
H      10.34      10.10       1.82
C      10.40       7.46       1.83
C      10.50      10.45      -0.36
H       9.92       7.49       2.80
H      10.04      10.29      -1.33
N       5.53      10.96      -0.99
N       4.81       8.16      -0.19
C       7.61      12.02       0.62
C       7.52       6.62      -0.56
O       6.53      12.58       1.05
O       6.48       6.09      -1.05
O       8.77      12.45       0.85
O       8.71       6.22      -0.85
