22

C       3.76       1.19       5.28
O       7.32       2.94       5.52
O       6.59       1.52       3.95
H       2.16       0.80       3.89
H       2.67      -1.58       3.63
H       7.15      -0.71       5.17
H       6.92      -0.98       7.01
H       6.39       1.35       7.29
N       6.72       1.83       5.21
C       5.04      -2.73       4.38
O       3.26       3.18       4.15
C       3.52       2.64       5.31
O       5.99      -3.25       5.05
O       4.69      -3.16       3.22
O       4.20       3.33       6.19
C       4.42      -1.52       4.91
C       5.08      -0.74       5.87
C       4.76       0.59       6.05
C       2.95       0.37       4.48
C       3.25      -0.99       4.32
C       6.54      -0.50       6.08
C       6.19       0.97       6.27
