22

C       4.87      17.22      14.39
O       5.36      18.13       9.66
O       6.40      16.79      11.13
H       4.72      17.17      16.55
H       5.02      19.57      16.83
H       5.48      20.21      11.47
H       3.76      20.23      12.21
H       3.58      17.84      11.85
N       5.51      17.71      10.88
C       5.33      21.41      14.91
O       3.39      15.55      15.08
C       4.20      15.95      14.19
O       6.21      21.98      14.18
O       4.92      21.89      16.01
O       4.32      15.40      13.05
C       5.10      20.00      14.71
C       5.32      19.41      13.47
C       5.22      18.04      13.31
C       4.90      17.78      15.68
C       5.02      19.16      15.83
C       4.74      19.71      12.13
C       4.63      18.20      11.94
