14

C       5.42       6.61       5.48
Co       8.95       8.57       2.97
O       6.35       9.26       3.92
O       7.59       9.52       2.04
C       6.54       9.75       2.77
Co       7.44       7.73       4.68
C       8.84       5.76       3.79
O       8.59       8.84       5.90
O       9.96       9.49       4.23
O       8.40       6.74       3.00
O       8.76       5.90       5.02
O       5.89       6.39       4.30
O       6.00       7.48       6.22
C       9.56       9.53       5.46
