14

Co       2.48      14.20       5.98
O       2.12      13.93       3.04
O       3.49      13.27       4.72
Co       0.97      15.03       4.26
C      -1.05      16.15       3.47
O      -0.12      13.50       5.03
O       1.12      13.24       6.90
C       3.08      13.23       3.48
O      -0.59      16.37       4.64
C       0.07      13.01       6.18
O      -0.48      15.28       2.73
C       2.37      17.01       5.15
O       1.93      16.02       5.95
O       2.29      16.86       3.92
