14

Co      11.97      16.16      13.63
O      13.42      15.91      15.16
O      13.53      14.82      13.24
Co      10.47      16.99      11.91
C      13.99      15.04      14.42
O      11.82      17.95      10.98
O      11.01      15.17      11.94
O      10.66      14.33      13.97
C       9.86      17.96      14.41
C      12.87      18.18      11.71
O      10.82      17.26      14.84
O       9.46      17.92      13.17
O      13.06      17.69      12.86
C      10.58      14.19      12.73
