270

H       7.55      13.21       1.81
H       5.90      14.01      33.46
H       1.38      15.22       0.81
H       1.72      15.82      34.66
H      10.73       9.60      34.72
H      11.13      10.31       0.80
H       6.53      11.33      33.53
H       4.99      12.39       1.88
H      21.64      11.71      13.59
H      23.16      12.74       9.90
H      -4.68      16.05      12.59
H      -4.32      15.45      11.09
H      16.93      10.76      11.16
H      17.35      10.06      12.58
H      20.53      13.54       9.96
H      22.22      14.33      13.66
H      13.30       0.26      25.37
H      -2.14      25.40      21.68
H      -0.93      20.89      24.37
H      -1.63      20.87      22.88
H      14.84       4.82      22.93
H      14.02       4.80      24.36
H      15.44       0.31      21.75
H      -0.29      25.42      25.44
H       9.88       7.58      33.13
H      13.07       6.66      28.96
H       9.54       4.42      29.22
H      10.47       8.06      28.35
H      14.95       5.79      27.84
H      14.97       4.29      27.14
H      10.68       5.37      33.02
H      11.18       4.67      31.61
H      13.20       1.74      27.30
H       9.80      10.88      32.12
H      15.61      12.51       9.57
H      13.21      10.21       5.41
H      13.04      14.39       5.65
H      15.73      11.76       4.79
H      11.51       9.02       4.29
H      10.20       9.75       3.59
H      13.30      12.93       9.46
H      12.43      12.85       8.05
H       8.89      12.58       3.74
H      18.51      10.93       8.56
H      17.01       5.08      21.35
H      16.22       8.31      17.19
H      19.93       6.36      17.43
H      16.30       5.35      16.57
H      16.04      10.38      16.07
H      17.32      11.14      15.37
H      18.53       6.87      21.24
H      18.89       7.66      19.83
H      20.43      10.87      15.52
H      14.20       3.36      20.34
H       3.54      18.18      33.08
H      -0.18      19.03      29.07
H       3.30      21.36      29.39
H       2.31      17.69      28.43
H      -2.06      19.86      27.91
H      -2.09      21.36      27.19
H       2.57      20.33      33.12
H       1.84      21.01      31.80
H      -0.42      23.94      27.39
H       4.93      15.33      31.71
H      -3.20      12.69       9.52
H      -0.60      15.49       5.51
H      -0.32      11.32       5.83
H      -3.01      14.01       4.86
H       1.06      16.71       4.34
H       2.37      15.99       3.63
H      -0.85      12.46       9.56
H       0.11      12.76       8.24
H       3.77      13.25       3.82
H      -6.36      12.92       8.15
H      -4.58      21.27      21.30
H      -3.45      17.63      17.29
H      -7.20      19.47      17.61
H      -3.53      20.45      16.65
H      -3.23      15.58      16.12
H      -4.51      14.81      15.41
H      -5.95      19.36      21.34
H      -6.17      18.38      20.02
H      -7.57      14.96      15.60
H      -2.80      23.90      19.93
C       6.86      12.38      35.33
C       7.77      12.55       1.05
C       8.99      11.84       1.09
C       9.33      10.94       0.04
C       8.41      10.78      34.30
C       7.19      11.49      34.29
C       5.62      13.08      35.33
C       4.75      13.00       1.10
C       3.54      13.73       1.13
C       3.17      14.56       0.03
C       4.05      14.65      34.26
C       5.26      13.91      34.25
C      21.28      12.72      11.77
C      20.96      11.85      12.84
C      19.74      11.15      12.87
C      18.79      11.31      11.82
C      19.11      12.18      10.74
C      20.34      12.88      10.73
C      22.50      13.45      11.77
C      22.87      14.24      12.88
C      -7.05      14.92      12.91
C      -6.15      14.83      11.81
C      -6.51      14.02      10.70
C      23.40      13.35      10.68
C      14.36       0.07      23.55
C      13.76       0.78      24.62
C      13.77       2.19      24.65
C      14.38       2.93      23.60
C      14.97       2.21      22.52
C      14.97       0.80      22.51
C      -1.20      25.62      23.55
C      -0.70      24.91      24.66
C      -0.72      23.50      24.70
C      -1.25      22.76      23.60
C      -1.77      23.48      22.48
C      -1.73      24.89      22.47
C       9.66       8.92      31.50
C       9.85       9.05      30.10
C      10.33       7.95      29.36
C      10.64       6.72      29.98
C      10.46       6.57      31.38
C       9.97       7.68      32.11
C      11.22       5.69      29.18
C      12.54       5.82      28.72
C      13.17       4.79      27.98
C      12.42       3.61      27.67
C      11.09       3.48      28.13
C      10.50       4.52      28.88
C      12.97       2.61      26.89
C       9.34      10.01      32.30
C      16.87      12.03       7.94
C      16.90      11.80       6.54
C      15.70      11.94       5.80
C      14.48      12.28       6.42
C      14.44      12.51       7.82
C      15.65      12.39       8.55
C      13.31      12.30       5.62
C      12.75      11.09       5.17
C      11.54      11.06       4.42
C      10.90      12.30       4.11
C      11.45      13.52       4.57
C      12.65      13.51       5.32
C       9.76      12.33       3.33
C      17.98      11.76       8.74
C      15.97       4.22      19.72
C      15.76       4.32      18.32
C      16.47       5.28      17.58
C      17.38       6.17      18.20
C      17.60       6.09      19.60
C      16.89       5.11      20.33
C      17.98       7.18      17.40
C      17.21       8.27      16.95
C      17.79       9.33      16.20
C      19.18       9.27      15.89
C      19.97       8.18      16.35
C      19.36       7.14      17.10
C      19.78      10.24      15.11
C      15.18       3.40      20.52
C       3.57      16.86      31.43
C       3.21      16.72      30.07
C       2.56      17.79      29.41
C       2.27      19.01      30.08
C       2.63      19.15      31.45
C       3.28      18.08      32.10
C       1.65      20.04      29.34
C       0.33      19.89      28.86
C      -0.31      20.90      28.10
C       0.42      22.10      27.81
C       1.74      22.27      28.29
C       2.34      21.24      29.05
C      -0.12      23.07      26.99
C       4.18      15.83      32.13
C      -4.35      13.33       7.87
C      -4.29      13.72       6.51
C      -3.04      13.74       5.85
C      -1.85      13.38       6.52
C      -1.90      13.00       7.89
C      -3.16      12.97       8.53
C      -0.63      13.41       5.78
C      -0.11      14.62       5.29
C       1.08      14.67       4.53
C       1.76      13.44       4.24
C       1.24      12.21       4.73
C       0.05      12.21       5.49
C       2.87      13.42       3.43
C      -5.55      13.32       8.57
C      -3.44      21.96      19.65
C      -3.14      21.71      18.29
C      -3.75      20.62      17.63
C      -4.65      19.76      18.30
C      -4.96      19.99      19.67
C      -4.35      21.10      20.32
C      -5.24      18.70      17.56
C      -4.45      17.64      17.08
C      -5.01      16.58      16.32
C      -6.40      16.61      16.02
C      -7.21      17.67      16.51
C      -6.62      18.70      17.27
C      -6.98      15.66      15.21
C      -2.86      23.00      20.35
N      10.49      10.23       0.08
N       2.00      15.26       0.06
N       3.76      15.52      33.30
N       2.72      13.65       2.17
N       8.63       9.87      33.36
N       9.85      11.97       2.10
N      17.59      10.65      11.86
N      -4.95      15.49      11.84
N      -5.61      13.84       9.74
N      -6.70      15.68      13.95
N      18.22      12.44       9.80
N      19.43      10.34      13.88
N      14.41       4.29      23.63
N      -1.28      21.40      23.62
N      -2.38      22.79      21.52
N      -0.24      22.82      25.74
N      15.65       2.85      21.58
N      13.22       2.86      25.66
N      14.47       4.98      27.61
N      10.35       2.30      27.83
N       9.56      10.29      29.47
N      10.79       5.44      32.06
N      11.05       9.84       4.06
N      10.80      14.75       4.27
N      18.11      11.43       5.91
N      13.30      12.80       8.50
N      16.98      10.36      15.84
N      21.35       8.13      16.05
N      14.83       3.45      17.69
N      18.42       6.94      20.28
N      -1.59      20.69      27.69
N       2.46      23.46      28.00
N       3.47      15.50      29.39
N       2.34      20.27      32.18
N       1.54      15.89       4.12
N       1.92      11.00       4.44
N      -5.48      14.09       5.83
N      -0.79      12.70       8.62
N      -4.18      15.58      15.90
N      -8.60      17.70      16.22
N      -2.22      22.55      17.61
N      -5.78      19.18      20.40
O      10.01       1.69      28.88
O      10.58      10.78      28.93
O       9.32       2.55      27.16
O       8.66      10.16      28.60
O      10.45      15.35       5.31
O      18.02      10.31       5.37
O      11.54      15.51       3.59
O      18.45      12.28       5.04
O      22.05       8.13      17.09
O      13.90       4.09      17.14
O      21.64       7.11      15.37
O      15.39       2.73      16.82
O       2.78      24.07      29.05
O       4.24      15.69      28.41
O       3.50      23.22      27.34
O       2.42      14.96      28.99
O       2.29      10.41       5.49
O      -5.70      13.34       4.84
O       1.19      10.21       3.78
O      -5.42      15.28       5.42
O      -9.29      17.66      17.27
O      -2.76      23.12      16.63
O      -8.92      18.72      15.56
O      -1.22      21.91      17.21
