13

H       1.90       8.57       1.45
H       1.32       6.84       3.23
H       4.54       8.05       5.54
H       5.31       9.66       3.78
N       2.89       7.40       4.49
O       5.16      10.77       1.53
O       3.27      10.27       0.38
C       4.09      10.11       1.35
C       3.71       9.12       2.41
C       2.54       8.39       2.31
C       2.16       7.53       3.35
C       3.99       8.15       4.60
C       4.47       9.00       3.60
