13

C       3.27       2.12      12.40
C       3.65       3.11      11.34
C       4.82       3.84      11.45
C       5.21       4.70      10.41
C       3.37       4.08       9.15
C       2.89       3.23      10.16
N       4.47       4.83       9.26
H       5.47       3.66      12.30
H       6.04       5.39      10.53
H       2.83       4.18       8.22
H       2.05       2.57       9.97
O       2.20       1.46      12.22
O       4.10       1.96      13.37
