109

Cr      10.97       6.54       8.01
Cr       7.59       6.49       8.49
Cr       9.35       3.56       8.52
Cr       0.93       0.55       0.60
Cr       2.57       3.53       0.12
Cr       4.31       0.59       0.08
H       8.58       2.64       4.74
H       3.46       3.91       3.96
H       3.59       5.69       3.43
H       4.37       4.42       6.11
H      11.45       2.43      11.70
H      11.99       2.51      14.09
H      12.80       7.46      14.89
H      10.51       7.59      14.21
H      11.04       5.89      14.20
H      10.90       6.81      12.65
H       7.26       2.20      12.17
H      12.52       7.19      11.26
H      13.60       9.53      12.42
H      13.31       9.74      14.21
H       9.15       1.49      13.31
H      14.20       6.70       6.20
H      15.58       8.57       5.54
H      14.88       7.79       4.08
H       5.94       7.47       4.56
H      15.11       8.23      14.05
H      14.34       7.06      11.01
H      11.67       9.66      10.75
H      17.40       9.68      14.16
H       7.98       8.30      14.44
H       7.61       7.52      12.24
H       6.40       8.93      11.92
H       7.64       2.17       2.53
C       8.86       7.94       6.24
C       8.34       8.77       3.81
C       7.90       4.65      12.10
C       7.47       4.22       6.64
C       7.72       4.59      13.29
C      13.11       4.36      13.94
C      13.66       5.27      13.06
C      13.43       5.21      11.72
C      12.11       3.21      12.06
C      12.38       3.27      13.43
C      13.67       6.76      13.11
C       7.72       3.21       4.39
C      13.46       6.72      11.60
C      12.56       4.25      11.21
C       9.97      10.25      13.67
C      11.29       4.20       6.23
C       8.69       9.96      13.20
C       8.50       9.49      11.93
C      10.84       9.73      11.45
C      11.03      10.28      12.73
C       7.60       9.10      13.76
C       7.38       8.60      12.35
C       7.19       2.94       3.13
C       9.59       9.22      11.10
C      11.43       3.05       2.40
C       5.16       2.94       1.69
C       7.94       9.12       2.48
C       9.40       8.30       9.99
C      13.64       4.38      15.27
C       7.42       4.29      14.64
C      10.12      10.55      15.09
C       8.04       4.59      10.69
C      11.87       4.53       9.99
C       4.07       4.84       3.96
C       5.98       3.55       2.73
C       5.47       4.60       3.50
C       6.01       4.88       4.74
C      11.20       6.87      13.71
C      13.40      10.25      13.24
C       4.91       7.64       4.94
C      15.02       7.29      13.51
C       4.66       5.16       5.32
C       7.05       4.09       5.26
C      11.36       3.72       4.90
C      11.31       3.34       3.77
C       8.67       8.44       4.91
N      12.57       7.33      13.89
N       7.09       1.58      12.97
N       4.47       6.53       5.77
O      11.71       5.37       6.51
O       5.44       1.76       1.32
O       8.91       9.00       1.64
O      10.00       7.52       6.66
O       9.12      10.17      15.84
O      13.61       3.30      15.92
O      14.46       5.32      15.52
O       6.52       4.97      15.24
O       7.81       3.17      15.07
O      11.31      10.43      15.60
O       2.60       1.56       0.26
O       7.24       5.38      10.04
O       7.79       7.70       6.85
O       6.85       5.14       7.32
O       7.78       3.12       7.27
O      10.49       3.57       6.96
O      12.13       5.64       9.44
O      10.38       7.77       9.38
O       8.21       7.96       9.78
O       5.38       6.68      13.24
O       8.20       3.38      10.20
O      10.87       3.81       9.67
O       9.31       5.53       8.34
O       6.75       8.76       2.09
O      11.20       1.87       1.95
O      12.09       3.91       1.77
O       4.12       3.54       1.28
