24

Co       2.18       6.31       4.17
Co      -0.14       8.19       3.38
Co       4.51       7.93       5.40
C       1.80       7.24       1.30
C       4.11       7.78       2.27
C      -0.53      10.20       5.62
C       1.78       9.08       5.60
C       4.12       4.98       6.03
C      -0.55       5.56       5.07
N       2.82       4.66       3.25
N       3.12       3.68       2.78
N       0.49       9.80       2.41
N       0.79      10.70       1.79
N       5.15       7.96       7.29
N       5.44       8.04       8.37
O       1.23       7.02       2.50
O       3.65       7.67       3.47
O      -1.66       8.10       2.02
O      -1.10       9.28       4.81
O       1.32       8.10       4.91
O       2.98       9.14       6.00
O       3.55       6.14       5.63
O      -1.00       6.65       4.57
O       0.66       5.17       4.92
