416

Zn       7.56      17.19      30.68
Zn       9.74      17.80      25.33
Zn       2.54      11.32      14.43
Zn       0.33      10.70       9.09
Zn       2.54       1.81      18.03
Zn       4.76       1.24      23.37
Zn       7.45       7.68       1.80
Zn       5.28       8.26       7.14
Zn       2.49       1.82       1.79
Zn       0.32       1.21       7.14
Zn       7.51       7.69      18.04
Zn       9.72       8.30      23.37
Zn       7.51      17.20      14.43
Zn       5.30      17.77       9.10
Zn       2.60      11.33      30.67
Zn       4.78      10.74      25.33
H       9.31      15.64       0.23
H       9.77      13.19       0.71
H       8.55      11.49      31.95
H       6.85      12.22      30.28
H       5.57      12.98      28.84
H       3.88      14.02      27.34
H       3.70      16.50      27.24
H       5.23      17.88      28.72
H       0.54      18.68      31.63
H       3.73       0.91      29.04
H       2.51       0.04      27.01
H       8.87      13.94      24.08
H       8.59      11.50      23.66
H       2.94      13.37      25.60
H       0.69      12.86      16.46
H       0.23      15.31      16.94
H       1.56      17.02      15.72
H       3.25      16.30      14.05
H       4.54      15.54      12.60
H       6.23      14.49      11.11
H       6.40      12.02      11.00
H       4.86      10.64      12.46
H       9.56       9.83      15.41
H       6.33       8.59      12.85
H       7.53       9.45      10.80
H       1.21      14.57       7.85
H       1.48      17.01       7.43
H       7.13      15.13       9.36
H       4.41       3.36      16.00
H       4.87       5.80      15.53
H       3.55       7.51      16.76
H       1.85       6.79      18.42
H       0.56       6.03      19.86
H       8.79       4.99      21.36
H       8.61       2.52      21.47
H       0.22       1.13      20.00
H       5.43       0.36      17.05
H       8.71      18.09      19.59
H       7.52      18.94      21.64
H       3.90       5.08      24.61
H       3.63       7.53      25.04
H       7.89       5.65      23.10
H       5.71       6.15      32.23
H       5.24       3.70      31.76
H       6.46       1.98       0.52
H       8.15       2.71       2.19
H       9.44       3.47       3.63
H       1.22       4.51       5.12
H       1.40       6.98       5.22
H       9.79       8.36       3.75
H       4.57       9.18       0.83
H       1.35      10.42       3.40
H       2.55       9.56       5.44
H       6.14       4.43       8.38
H       6.41       1.98       8.81
H       2.15       3.86       6.87
H       0.75       3.37      32.23
H       0.28       5.82      31.76
H       1.50       7.52       0.52
H       3.20       6.79       2.18
H       4.48       6.03       3.63
H       6.17       4.98       5.12
H       6.36       2.51       5.23
H       4.83       1.13       3.75
H       9.52       0.32       0.83
H       6.33      18.10       3.43
H       7.54      18.97       5.46
H       1.18       5.06       8.38
H       1.46       7.51       8.80
H       7.12       5.63       6.87
H       9.37       6.15      16.01
H       9.83       3.70      15.52
H       8.50       1.99      16.75
H       6.81       2.71      18.42
H       5.52       3.47      19.86
H       3.82       4.52      21.35
H       3.65       6.99      21.47
H       5.19       8.37      20.00
H       0.49       9.17      17.06
H       3.73      10.42      19.61
H       2.53       9.56      21.66
H       8.85       4.44      24.62
H       8.58       1.99      25.04
H       2.92       3.87      23.10
H       5.65      15.65      16.47
H       5.18      13.20      16.94
H       6.51      11.49      15.71
H       8.20      12.22      14.04
H       9.49      12.97      12.60
H       1.27      14.02      11.11
H       1.45      16.49      11.00
H       9.83      17.87      12.47
H       4.62      18.65      15.41
H       1.35       0.92      12.88
H       2.54       0.07      10.82
H       6.16      13.92       7.85
H       6.43      11.48       7.42
H       2.17      13.36       9.36
H       4.34      12.86       0.23
H       4.82      15.30       0.70
H       3.60      17.02      31.94
H       1.90      16.30      30.28
H       0.61      15.54      28.83
H       8.84      14.49      27.34
H       8.65      12.02      27.24
H       0.26      10.64      28.72
H       5.48       9.83      31.63
H       8.71       8.59      29.07
H       7.51       9.45      27.03
H       3.92      14.58      24.09
H       3.64      17.02      23.66
H       7.90      15.15      25.60
C       8.88      14.85      32.19
C       9.12      13.51      32.46
C       8.38      12.55      31.76
C       7.43      12.96      30.83
C       7.23      14.33      30.60
C       6.25      14.87      29.64
C       5.46      14.06      28.82
C       4.53      14.64      27.97
C       4.42      16.03      27.91
C       5.26      16.79      28.73
C       0.27      18.34      29.51
C       0.96      18.77      30.64
C       2.20       0.34      30.44
C       2.94       0.92      31.62
C       2.75       0.44      29.13
C       2.11      18.98      28.01
C       0.83      18.43      28.21
C       1.03      15.25      25.25
C       0.95      13.79      24.88
C       9.68      13.26      24.30
C       9.53      11.91      24.03
C       0.72      11.08      24.30
C       1.92      11.62      24.83
C       2.03      12.97      25.16
C       1.23      13.66      15.95
C       0.99      15.00      16.22
C       1.73      15.96      15.53
C       2.67      15.55      14.59
C       2.87      14.18      14.36
C       3.85      13.64      13.39
C       4.65      14.46      12.58
C       5.58      13.87      11.73
C       5.68      12.48      11.67
C       4.84      11.72      12.48
C       9.82      10.18      13.28
C       9.13       9.74      14.41
C       7.88       9.17      14.23
C       7.16       8.59      15.42
C       7.31       9.07      12.93
C       7.97       9.52      11.80
C       9.25      10.07      11.99
C       9.05      13.25       9.01
C       9.12      14.71       8.65
C       0.39      15.25       8.06
C       0.54      16.60       7.80
C       9.35      17.42       8.06
C       8.15      16.89       8.59
C       8.04      15.54       8.93
C       3.87       4.15      16.51
C       4.11       5.50      16.24
C       3.38       6.45      16.94
C       2.43       6.05      17.88
C       2.23       4.68      18.10
C       1.24       4.14      19.07
C       0.45       4.95      19.88
C       9.44       4.37      20.74
C       9.33       2.98      20.80
C       0.25       2.22      19.99
C       5.19       0.68      19.18
C       5.87       0.25      18.04
C       7.16      18.68      18.21
C       7.87      18.12      17.01
C       7.73      18.57      19.51
C       7.05       0.02      20.65
C       5.76       0.57      20.47
C       5.97       3.77      23.45
C       5.90       5.23      23.82
C       4.71       5.77      24.40
C       4.56       7.12      24.67
C       5.67       7.94      24.40
C       6.87       7.40      23.88
C       6.98       6.05      23.54
C       6.14       5.35       0.28
C       5.89       4.00       0.01
C       6.63       3.04       0.71
C       7.58       3.45       1.64
C       7.78       4.82       1.87
C       8.77       5.36       2.83
C       9.56       4.55       3.65
C       0.57       5.13       4.50
C       0.68       6.52       4.55
C       9.76       7.28       3.74
C       4.83       8.83       2.96
C       4.14       9.27       1.82
C       2.88       9.83       2.01
C       2.15      10.41       0.82
C       2.32       9.94       3.31
C       2.98       9.48       4.44
C       4.26       8.93       4.25
C       4.07       5.73       7.22
C       4.14       4.28       7.58
C       5.32       3.74       8.17
C       5.47       2.39       8.44
C       4.37       1.57       8.17
C       3.17       2.10       7.65
C       3.05       3.45       7.31
C       1.18       4.16       0.28
C       0.93       5.50       0.01
C       1.67       6.46       0.71
C       2.63       6.05       1.64
C       2.82       4.68       1.86
C       3.81       4.14       2.83
C       4.60       4.95       3.65
C       5.53       4.36       4.50
C       5.64       2.98       4.55
C       4.80       2.22       3.74
C       9.79       0.67       2.96
C       9.09       0.24       1.83
C       7.86      18.67       2.02
C       7.11      18.09       0.85
C       7.30      18.57       3.33
C       7.94       0.03       4.46
C       9.23       0.58       4.25
C       9.03       3.75       7.22
C       9.10       5.21       7.58
C       0.37       5.75       8.17
C       0.52       7.10       8.43
C       9.33       7.92       8.16
C       8.14       7.39       7.64
C       8.02       6.04       7.30
C       8.83       5.35      16.52
C       9.07       4.01      16.24
C       8.33       3.05      16.94
C       7.38       3.46      17.88
C       7.19       4.82      18.11
C       6.20       5.36      19.07
C       5.41       4.55      19.89
C       4.47       5.14      20.74
C       4.37       6.53      20.80
C       5.22       7.28      19.99
C       0.24       8.83      19.19
C       0.92       9.26      18.05
C       2.18       9.84      18.23
C       2.90      10.42      17.04
C       2.75       9.94      19.54
C       2.09       9.49      20.67
C       0.81       8.93      20.48
C       1.01       5.75      23.45
C       0.93       4.29      23.82
C       9.66       3.76      24.40
C       9.51       2.41      24.67
C       0.71       1.58      24.40
C       1.90       2.12      23.88
C       2.02       3.47      23.54
C       6.19      14.86      15.96
C       5.94      13.51      16.22
C       6.68      12.55      15.52
C       7.63      12.96      14.59
C       7.83      14.33      14.36
C       8.81      14.87      13.40
C       9.60      14.05      12.58
C       0.62      14.64      11.73
C       0.73      16.03      11.67
C       9.80      16.79      12.48
C       4.87      18.33      13.28
C       4.19      18.75      14.43
C       2.90       0.32      14.25
C       2.19       0.89      15.45
C       2.32       0.44      12.95
C       3.01      18.99      11.81
C       4.29      18.43      11.99
C       4.09      15.23       9.02
C       4.16      13.78       8.65
C       5.34      13.24       8.07
C       5.49      11.89       7.79
C       4.38      11.07       8.06
C       3.18      11.60       8.59
C       3.07      12.96       8.93
C       3.91      13.66      32.19
C       4.16      15.00      32.45
C       3.43      15.96      31.76
C       2.47      15.55      30.82
C       2.28      14.19      30.60
C       1.29      13.65      29.63
C       0.50      14.46      28.82
C       9.48      13.88      27.97
C       9.37      12.49      27.91
C       0.29      11.73      28.72
C       5.23      10.17      29.50
C       5.91       9.74      30.64
C       7.17       9.17      30.46
C       7.90       8.60      31.65
C       7.74       9.07      29.15
C       7.07       9.52      28.02
C       5.79      10.08      28.21
C       5.99      13.27      25.25
C       5.92      14.73      24.88
C       4.73      15.27      24.30
C       4.58      16.62      24.03
C       5.69      17.44      24.29
C       6.89      16.91      24.82
C       7.00      15.55      25.16
N       6.14      16.23      29.58
N       7.96      15.25      31.28
N       8.94      17.78      29.35
N       8.73      17.54      28.05
N       9.80      17.93      27.35
N       2.81      10.57      24.91
N       2.21       9.46      24.49
N       0.95       9.74      24.13
N       3.96      12.29      13.33
N       2.14      13.26      15.04
N       1.14      10.74      13.11
N       1.34      10.97      11.80
N       0.27      10.57      11.11
N       7.26      17.93       8.67
N       7.83       0.05       8.25
N       9.12      18.77       7.89
N       1.13       2.78      19.13
N       2.95       3.75      17.42
N       3.94       1.25      19.36
N       3.76       1.48      20.66
N       4.83       1.08      21.35
N       7.76       8.45      23.79
N       7.16       9.56      24.22
N       5.90       9.28      24.58
N       8.88       6.72       2.89
N       7.05       5.74       1.19
N       6.07       8.27       3.12
N       6.27       8.02       4.42
N       5.20       8.42       5.12
N       2.28       1.06       7.56
N       2.90      18.94       7.99
N       4.14       0.22       8.35
N       3.92       2.78       2.89
N       2.09       3.76       1.18
N       1.12       1.23       3.12
N       1.32       1.47       4.42
N       0.25       1.08       5.12
N       7.25       8.43       7.55
N       7.84       9.55       7.98
N       9.11       9.27       8.34
N       6.10       6.72      19.14
N       7.92       5.74      17.43
N       8.91       8.26      19.35
N       8.72       8.04      20.66
N       9.79       8.43      21.35
N       2.79       1.07      23.79
N       2.22      18.96      24.21
N       0.93       0.24      24.58
N       8.92      16.22      13.33
N       7.10      15.25      15.05
N       6.11      17.76      13.11
N       6.30      17.53      11.80
N       5.22      17.93      11.12
N       2.29      10.56       8.67
N       2.89       9.44       8.25
N       4.15       9.72       7.89
N       1.18      12.29      29.57
N       3.00      13.27      31.28
N       3.98      10.74      29.35
N       3.79      10.98      28.04
N       4.86      10.59      27.35
N       7.78      17.95      24.90
N       7.15       0.07      24.48
N       5.92      18.78      24.12
O      10.02      15.99      24.69
O       1.89      15.68      26.04
O       3.94       1.64      31.45
O       2.30       0.61       0.32
O       0.05      12.52       8.45
O       8.18      12.83       9.81
O       6.15       7.88      15.29
O       7.73       8.89      16.57
O       5.04       3.05      24.01
O       6.83       3.34      22.65
O       8.86      17.38      17.12
O       7.30      18.45      15.87
O       5.00       6.46       7.78
O       3.21       6.17       6.42
O       1.15      11.12       0.95
O       2.83      10.12      32.13
O       0.03       3.02       7.78
O       8.16       3.33       6.42
O       6.11      17.37       1.01
O       7.76      18.40      32.15
O      10.00       6.49      24.01
O       1.87       6.17      22.65
O       3.90      11.13      17.18
O       2.32      10.11      15.90
O       5.02      15.96       8.45
O       3.23      15.67       9.81
O       1.19       1.63      15.35
O       2.76       0.56      16.59
O       5.06      12.55      24.68
O       6.85      12.84      26.04
O       8.91       7.88      31.51
O       7.22       8.89       0.33
