17

Sm       0.60       1.30      10.82
O      -1.06       0.20       9.54
C      -0.75      -0.07       8.35
C      -1.51       2.84      12.84
C      -1.97       1.44      13.16
O      -0.37       2.97      12.29
C      -1.68      -0.81      12.77
N       2.02       3.60      10.91
C       1.32       4.59      10.31
C       1.92      -1.92      11.60
N      -1.27       0.45      12.56
O      -0.12       2.94       9.40
O       1.11      -0.98      11.34
O       1.55       0.46       8.84
C       3.07       3.95      11.66
C       0.08       4.21       9.52
C       0.75       0.07       7.94
