150

Zn       4.82       2.74       4.85
Zn      12.09       8.01       2.15
Zn      11.70       9.24       9.15
Zn       4.43       3.97      11.85
H       4.59       7.05       4.18
H       5.64       9.34       0.68
H       5.82       7.80      13.25
H       1.93       2.56       4.11
H      12.01       1.38       4.95
H       6.04      11.67       8.38
H       4.19       1.31       7.36
H       3.24       1.23       2.63
H       3.75       0.39       0.36
H       8.07       9.57       2.82
H       5.57       9.29       6.32
H       7.63       9.11       7.74
H      13.16      10.70       2.89
H      11.14       0.75       2.04
H       3.88      10.11      12.62
H      14.30       8.64      13.63
H      14.02       9.04       4.37
H      14.66       8.30       6.64
H      11.93       4.93       9.82
H      10.88       2.64      13.32
H      10.70       4.18       0.74
H      14.59       9.42       9.89
H       4.51      10.59       9.04
H      10.48       0.31       5.62
H      12.33      10.67       6.63
H      13.28      10.75      11.37
H      12.77      11.59      13.64
H       8.45       2.41      11.18
H      10.95       2.68       7.68
H       8.89       2.87       6.26
H       3.36       1.28      11.11
H       5.38      11.23      11.95
H      12.64       1.87       1.38
H       2.23       3.34       0.37
H       2.50       2.93       9.63
H       1.87       3.68       7.36
C       4.11       4.70       3.02
C       4.48       5.98       2.31
C       4.71       7.12       3.10
C       5.09       8.32       2.50
C       5.30       8.40       1.12
C       5.05       7.28       0.34
C       4.63       6.07       0.91
C       4.43       4.89       0.00
C       1.95       1.98       5.03
C       0.83       1.33       5.53
C       0.90       0.62       6.74
C       2.13       0.65       7.41
C       3.23       1.29       6.85
C       4.26       1.08       2.31
C       4.56       0.62       1.04
C       5.93       0.43       0.61
C       6.91       0.32       1.77
C       6.41       1.30       2.63
C       6.85       1.75       0.65
C       7.25       2.24       1.82
C      10.45       9.30       3.97
C       9.12       9.34       4.68
C       7.97       9.48       3.90
C       6.71       9.50       4.50
C       6.56       9.32       5.88
C       7.71       9.22       6.66
C       8.99       9.24       6.08
C      10.17       9.06       6.99
C      13.71      10.49       1.97
C      14.68      11.36       1.47
C      15.34      11.07       0.26
C      15.57      10.38      13.58
C      13.97       9.07       0.15
C      13.84       8.02       4.69
C      14.18       7.60       5.96
C      13.94       6.24       6.39
C      13.74       5.27       5.23
C      12.97       6.05       4.37
C      12.40       5.77       6.34
C      11.81       5.54       5.18
C      12.41       7.28      10.98
C      12.04       5.99      11.69
C      11.81       4.86      10.90
C      11.43       3.66      11.50
C      11.22       3.57      12.88
C      11.48       4.70      13.66
C      11.90       5.90      13.08
C      12.09       7.08      13.99
C      14.57      10.00       8.97
C      15.69      10.64       8.47
C      15.62      11.36       7.26
C      14.39      11.33       6.59
C      13.29      10.69       7.15
C      12.26      10.89      11.69
C      11.96      11.35      12.95
C      10.59      11.55      13.39
C       9.61      11.66      12.23
C      10.11      10.68      11.37
C       9.67      10.23      13.34
C       9.27       9.74      12.18
C       6.07       2.68      10.02
C       7.40       2.63       9.31
C       8.55       2.50      10.10
C       9.81       2.48       9.50
C       9.96       2.66       8.12
C       8.81       2.76       7.34
C       7.53       2.74       7.91
C       6.35       2.92       7.00
C       2.81       1.48      12.03
C       1.85       0.61      12.53
C       1.19       0.91      13.73
C       0.95       1.59       0.41
C       2.55       2.91      13.85
C       2.68       3.95       9.31
C       2.34       4.38       8.04
C       2.58       5.74       7.61
C       2.78       6.71       8.77
C       3.56       5.93       9.63
C       4.12       6.21       7.65
C       4.71       6.43       8.82
S       5.27       9.77       3.50
S      11.25       2.20      10.50
N       3.15       1.93       5.66
N       5.24       1.46       3.21
N      13.39       9.35       1.34
N      13.18       7.21       3.79
N      13.37      10.05       8.34
N      11.28      10.52      10.79
N       3.13       2.63      12.66
N       3.34       4.76      10.21
O       4.89       4.48       4.04
O       3.15       4.00       2.66
O       4.93       3.78       0.27
O       4.39       5.63      12.92
O       5.55      10.89       2.59
O      10.41       8.48       2.95
O      11.42       9.99       4.33
O      11.07       8.24       6.73
O      10.14       9.79       8.07
O       4.12       9.86       4.40
O      11.63       7.49       9.95
O      13.37       7.98      11.33
O      11.60       8.20      13.73
O      12.13       6.35       1.08
O      10.97       1.08      11.40
O       6.11       3.49      11.04
O       5.10       1.99       9.66
O       5.45       3.73       7.27
O       6.39       2.19       5.93
O      12.40       2.12       9.59
