13

O       3.49      11.46       7.07
O       1.58      10.30       6.98
C       2.44      11.07       6.46
C       2.25      11.59       5.04
C       0.04      12.11       3.99
C      -0.93      12.46       5.12
H       2.27      12.69       5.08
H       3.13      11.28       4.46
O      -0.87      11.76       6.20
H      -0.57      11.71       3.17
H       0.52      13.04       3.64
O      -1.77      13.39       4.98
N       1.02      11.09       4.40
