19

O      12.26       4.42      11.21
O      12.14       3.27       9.32
O      11.90       1.81      15.62
O      10.54       0.01      15.55
O       9.67      -2.24      11.08
O      11.22      -1.60       9.53
H      10.83      -2.32       8.94
H      11.44       0.87       9.62
H      11.90       3.03      13.33
H      10.49      -1.06      13.33
C      11.23       0.92      15.00
C      11.70       2.09      11.39
C      11.38       0.91      10.70
C      11.65       2.12      12.79
C      10.93      -0.22      11.41
C      11.24       0.97      13.50
C      10.84      -0.17      12.80
C      10.52      -1.45      10.68
C      12.06       3.32      10.62
