20

N       3.19       5.27       9.25
N      10.32       5.54       9.11
H       3.30       6.26      11.07
H       3.28       4.21       7.47
H       5.75       6.45      11.07
H       5.75       4.27       7.32
H       7.75       6.48      11.05
H       7.75       4.48       7.21
H      10.22       6.51      10.93
C       3.88       5.85      10.24
C       3.88       4.71       8.24
C       5.27       5.94      10.24
C       5.27       4.75       8.17
C       6.01       5.39       9.18
C       7.49       5.47       9.14
C       8.23       6.05      10.18
C       8.24       4.95       8.06
C       9.62       6.07      10.13
C       9.63       5.00       8.09
H      10.23       4.59       7.27
