29

H       2.95       4.00      11.05
H       5.53       1.18       9.02
H       6.80       5.25       9.53
H       5.31       3.38       6.78
H       5.12       2.41       4.48
H       8.99       0.59       4.92
H       9.18       1.57       7.23
C       4.61       6.13      10.94
C       4.86       4.77      10.37
C       3.88       3.77      10.53
C       4.14       2.47      10.08
C       3.13       1.42      10.36
C       5.32       2.19       9.39
C       6.24       3.21       9.15
C       6.04       4.49       9.68
C       7.25       2.49       7.13
C       6.10       2.76       6.37
C       6.00       2.22       5.09
C       7.03       1.41       4.58
C       6.86       0.76       3.26
C       8.19       1.21       5.33
C       8.31       1.75       6.61
O       5.61       6.89      11.14
O       3.41       6.44      11.21
O       1.90       1.74      10.45
O       3.50       0.18      10.52
O       7.40       2.96       8.43
O       5.87       1.09       2.50
O       7.70      -0.14       2.87
