29

H       1.54       4.33       0.42
H      -1.03       7.15       2.44
H      -2.31       3.08       1.94
H      -0.81       4.95       4.69
H      -0.62       5.92       6.98
H      -4.49       7.74       6.54
H      -4.69       6.76       4.24
C      -0.11       2.21       0.52
C      -0.36       3.56       1.09
C       0.61       4.56       0.93
C       0.36       5.86       1.39
C       1.37       6.91       1.11
C      -0.82       6.15       2.08
C      -1.74       5.12       2.32
C      -1.55       3.84       1.79
C      -2.75       5.84       4.33
C      -1.60       5.57       5.09
C      -1.50       6.11       6.37
C      -2.53       6.92       6.89
C      -2.36       7.57       8.21
C      -3.70       7.13       6.13
C      -3.81       6.58       4.86
O      -1.11       1.44       0.32
O       1.09       1.89       0.25
O       2.59       6.60       1.02
O       1.00       8.15       0.95
O      -2.91       5.37       3.04
O      -1.37       7.24       8.97
O      -3.21       8.47       8.59
