180

Mn       7.18       4.03      22.01
Mn       7.82       6.87       8.19
Mn       3.68       6.89       5.62
Mn       3.03       4.04      19.44
H       5.86       5.26      24.28
H       3.62       4.21      24.35
H       2.97       5.67      23.61
H       6.16       7.61      27.14
H       5.42       7.53       1.84
H       9.83       6.75       0.29
H       2.22       6.81      25.59
H       9.09       5.81      23.68
H       9.86       8.17      23.76
H       7.50       8.86      20.19
H       6.82       6.51      20.29
H       8.34       1.51      23.65
H      10.36      10.14      23.80
H       8.29      10.65      20.03
H       6.37       2.00      20.04
H       9.14       5.67      10.43
H       3.06       6.67      10.54
H       3.69       5.24       9.73
H       8.77       3.30      13.28
H       1.30       3.45      15.62
H       5.24       4.24      14.13
H       4.39       4.11      11.78
H       5.88       5.10       9.82
H       5.09       2.75       9.88
H       7.57       2.01       6.41
H       8.25       4.36       6.51
H       6.71       9.38       9.86
H       4.69       0.75      10.00
H       6.66       0.26       6.17
H       8.60       8.91       6.20
H       4.99       5.65       3.35
H       7.24       6.71       3.28
H       7.89       5.25       4.02
H       4.70       3.31       0.49
H       5.44       3.39      25.79
H       1.02       4.16      27.34
H       8.64       4.10       2.04
H       1.76       5.10       3.95
H       1.00       2.75       3.87
H       3.36       2.05       7.44
H       4.04       4.40       7.34
H       2.52       9.40       3.98
H       0.50       0.78       3.83
H       2.57       0.26       7.61
H       4.49       8.92       7.59
H       1.72       5.25      17.20
H       7.79       4.24      17.09
H       7.17       5.68      17.90
H       2.09       7.62      14.35
H       9.56       7.47      12.01
H       5.62       6.68      13.50
H       6.46       6.81      15.85
H       4.98       5.82      17.81
H       5.77       8.16      17.75
H       3.29       8.91      21.22
H       2.61       6.56      21.12
H       4.15       1.54      17.77
H       6.16      10.16      17.63
H       4.20      10.66      21.46
H       2.26       2.01      21.43
C       3.99       4.39      22.24
C       3.85       5.01      23.63
C       4.25       7.22      26.24
C       5.11       7.39      27.32
C       4.76       7.38       0.99
C       3.40       7.12       1.21
C       2.55       6.95       0.11
C       2.88       6.95      26.44
C       2.83       7.04       2.60
C       8.76       6.54      22.94
C       9.17       7.86      22.98
C       8.75       8.76      21.98
C       7.87       8.25      21.01
C       7.49       6.92      21.04
C       7.72       1.06      22.87
C      10.02      10.73      22.95
C       9.21      10.16      21.94
C       6.20       0.01      20.86
C       6.63       1.33      20.85
C       2.67       6.57       8.42
C       2.82       5.90       9.79
C       2.36       3.70      12.40
C       1.48       3.52      13.47
C       1.97       3.60      14.78
C       3.32       3.87      15.01
C       4.19       4.05      13.93
C       3.71       3.97      12.62
C       3.89       3.95      16.41
C       6.23       4.37       9.09
C       5.81       3.05       9.13
C       6.26       2.14       8.15
C       7.17       2.63       7.20
C       7.55       3.96       7.24
C       7.30       9.84       9.07
C       5.01       0.17       9.14
C       5.79       0.74       8.11
C       8.77      10.90       7.02
C       8.35       9.58       7.02
C       6.87       6.52       5.39
C       7.01       5.90       4.00
C       6.61       3.70       1.40
C       5.75       3.53       0.31
C       6.10       3.54      26.64
C       7.46       3.80      26.42
C       8.31       3.97      27.52
C       7.97       3.97       1.19
C       8.03       3.88      25.03
C       2.10       4.38       4.69
C       1.69       3.05       4.65
C       2.11       2.15       5.65
C       2.98       2.66       6.63
C       3.36       4.00       6.59
C       3.13       9.86       4.76
C       0.84       0.19       4.68
C       1.65       0.75       5.69
C       4.65      10.91       6.77
C       4.23       9.59       6.78
C       8.19       4.35      19.21
C       8.04       5.01      17.84
C       8.50       7.22      15.23
C       9.38       7.40      14.16
C       8.89       7.31      12.85
C       7.53       7.05      12.62
C       6.67       6.87      13.70
C       7.14       6.95      15.01
C       6.97       6.97      11.22
C       4.62       6.55      18.54
C       5.05       7.87      18.50
C       4.60       8.78      19.48
C       3.69       8.28      20.43
C       3.30       6.95      20.39
C       3.56       1.08      18.56
C       5.85      10.75      18.49
C       5.07      10.18      19.52
C       2.09       0.02      20.61
C       2.51       1.34      20.61
S       4.90       7.32      24.58
S       1.74       3.60      10.73
S       5.96       3.60       3.05
S       9.12       7.32      16.90
N       5.02       5.79      24.01
N       7.95       6.05      21.97
N       7.37       1.87      21.85
N       1.64       5.13      10.16
N       7.08       4.84       8.15
N       7.63       9.03       8.03
N       5.84       5.12       3.62
N       2.91       4.87       5.66
N       3.49       9.05       5.78
N       9.22       5.79      17.47
N       3.78       6.08      19.48
N       3.23       1.89      19.60
O       5.13       4.12      21.77
O       2.91       4.19      21.61
O       6.25       7.84      24.67
O       3.88       7.99      23.77
O       3.72       6.93       3.55
O       9.93       7.07       2.77
O       9.86       6.86       7.97
O       3.74       6.79       7.78
O       8.71       3.11      10.79
O       2.76       2.91       9.95
O       2.99       4.00      17.36
O       5.12       3.96      16.59
O       5.72       6.79       5.86
O       7.95       6.73       6.02
O       4.61       3.07       2.96
O       6.98       2.93       3.86
O       7.13       3.98      24.08
O       0.92       3.85      24.86
O       1.00       4.06      19.66
O       7.11       4.13      19.85
O       2.15       7.81      16.84
O       8.10       8.01      17.68
O       7.87       6.91      10.27
O       5.74       6.96      11.04
