21

Mn       8.88       4.77       4.08
Mn       4.80      -0.75       6.45
Mn       7.02       1.88       5.27
C       6.10       4.08       3.13
C       8.39       4.57       6.62
C       7.60      -0.27       7.59
C       4.65       2.11       7.40
C       4.84      -0.22       3.91
C       9.24       1.95       2.95
O       5.96       2.99       3.74
O       6.93       4.97       3.40
O       8.33       3.51       5.92
O       8.57       5.68       6.09
O       7.96       0.49       6.66
O       6.43      -0.68       7.80
O       5.64       2.56       6.80
O       4.03       1.05       7.14
O       5.84       0.14       4.61
O       3.83      -0.72       4.45
O       8.62       1.39       3.87
O       9.29       3.19       2.74
