126

Na       3.98       8.46       4.94
Na       3.92      12.02       7.07
Na      -1.34       8.33       4.94
Na      -1.28       4.77       7.07
Na       9.19       8.40       4.83
Na       9.19       8.40       0.67
Na       1.27      -0.06       9.87
Na      11.85      13.17       7.74
Na       1.37      16.86       9.87
Na       6.53       3.63       7.74
Na       6.58      16.80       9.99
Na       1.32       8.40      -0.67
Zn       6.56       6.73       5.87
Zn       1.32       8.40       2.99
Zn      11.82      10.07       5.87
Zn      -1.31       1.67       8.95
Zn       9.19       8.40      -2.99
Zn       3.95      15.13       8.95
C       6.64       9.38       6.81
C       6.34      13.52       9.22
C       7.05      12.27       8.87
C       7.19      10.37       7.75
C       1.37       6.28       4.86
C       1.10       2.20       7.39
C       1.78       3.09       6.44
C       1.92       4.98       5.28
C      11.87       9.52       3.08
C      11.58       9.46      -1.72
C      12.27       9.81      -0.47
C      12.42       9.83       1.75
C       1.27      10.52       4.86
C       1.54      14.60       7.39
C       0.86      13.71       6.44
C       0.72      11.82       5.28
C       6.52       7.28       3.08
C       6.80       7.34      -1.72
C       6.11       6.98      -0.47
C       5.97       6.97       1.75
C      11.74       7.41       6.81
C      -3.70       3.27       9.22
C      -4.41       4.52       8.87
C      11.20       6.43       7.75
C      -1.39      -0.99       8.01
C       9.42      11.67       5.59
C       8.72      12.92       5.94
C       8.58      14.83       7.06
C       3.89       2.12       9.95
C       4.16       6.20       7.42
C       3.47       5.31       8.37
C       3.34       3.42       9.53
C      -1.35       7.28      -3.08
C      -1.07       7.34       1.72
C      -1.76       6.98       0.47
C      -1.90       6.97      -1.75
C       9.24       6.27      -4.86
C      -1.52      10.60       7.42
C      -0.83      11.49       8.37
C      -0.70      13.37       9.53
C       3.99       9.52      -3.08
C       3.71       9.46       1.72
C       4.40       9.81       0.47
C       4.54       9.83      -1.75
C       9.26       0.99       8.01
C       8.96       5.12       5.59
C       9.66       3.88       5.94
C       9.81       1.97       7.06
O       7.40       8.34       6.62
O       5.53       9.60       6.28
O       5.13      13.56       8.75
O       6.92      14.41       9.87
O       6.37      11.44       8.01
O       2.13       6.94       4.03
O       0.25       6.62       5.29
O      -0.11       2.61       7.68
O       1.67       1.20       7.85
O       1.11       4.25       6.12
O      -3.13       9.89       4.08
O      10.75       8.96       3.14
O      10.37       9.01      -1.52
O      12.16       9.58      -2.82
O      11.60       9.50       0.69
O       0.51       9.86       4.03
O       2.39      10.17       5.29
O       2.75      14.19       7.68
O       0.97      15.60       7.85
O       1.53      12.55       6.12
O       5.77       6.91       4.08
O       7.64       7.84       3.14
O       8.01       7.79      -1.52
O       6.23       7.22      -2.82
O       6.79       7.30       0.69
O      10.98       8.46       6.62
O      -2.89       7.19       6.28
O      -2.49       3.24       8.75
O      -4.28       2.39       9.87
O      -3.73       5.35       8.01
O      -2.15       0.06       8.19
O      -0.27      -1.20       8.53
O      10.64      11.64       6.06
O       8.85      10.78       4.94
O       9.40      13.75       6.80
O       3.12       1.46      10.78
O       5.01       1.77       9.52
O       5.37       5.79       7.13
O       3.58       7.20       6.96
O       4.14       4.15       8.69
O       3.15      15.30      10.74
O      -0.24       7.84      -3.14
O       0.14       7.79       1.52
O      -1.65       7.22       2.82
O      -1.09       7.30      -0.69
O      10.00       6.94      -4.03
O       2.87      -1.77       9.52
O      13.02      11.01       7.13
O      -0.94       9.60       6.96
O      -1.51      12.65       8.69
O       4.75       9.89      -4.08
O       2.88       8.96      -3.14
O       2.50       9.01       1.52
O       4.29       9.58       2.82
O       3.73       9.50      -0.69
O       4.78      16.74       8.19
O       8.14       1.20       8.53
O       7.74       5.16       6.06
O       9.54       6.01       4.94
O       8.99       3.04       6.80
