15

N       1.39       3.07       0.56
H       1.91       3.44       2.41
H       4.90       4.09      -0.20
H       1.25       2.83      -1.36
C       3.53       3.88       1.29
C       2.22       3.45       1.53
C       4.02       3.85      -0.02
C       3.15       3.46      -1.04
C       1.84       3.09      -0.68
C       4.38       4.44       2.37
O       3.84       4.80       3.47
C       3.52       3.51      -2.49
O       5.62       4.63       2.17
O       2.63       3.68      -3.30
O       4.76       3.35      -2.75
