16

H      -0.08       1.93       8.11
H      -3.18       1.80      10.65
H      -4.61       2.21       8.89
H      -1.51       2.34       6.35
C      -1.48       1.81       9.56
C      -1.02       1.99       8.28
C      -2.83       1.91       9.77
C      -0.56       1.53      10.71
C      -3.21       2.33       7.44
C      -3.68       2.16       8.73
C      -1.86       2.24       7.23
C      -4.13       2.61       6.29
O       0.52       0.95      10.47
O      -0.93       1.93      11.85
O      -5.21       3.20       6.53
O      -3.76       2.22       5.15
