16

H       4.94      -0.83       4.49
H       8.04      -3.31       3.94
H       9.47      -1.50       4.01
H       6.37       0.98       4.56
C       6.34      -2.26       4.22
C       5.88      -0.97       4.39
C       7.69      -2.44       4.07
C       5.42      -3.45       4.19
C       8.07      -0.08       4.28
C       8.54      -1.36       4.11
C       6.72       0.10       4.43
C       8.99       1.11       4.31
O       5.79      -4.43       3.50
O       4.34      -3.36       4.81
O       8.62       2.10       5.00
O      10.07       1.03       3.69
