26

C       0.60      10.22       2.17
H       0.06       3.91      -2.23
H      -4.10       3.65      -2.81
C       2.76      10.31       2.46
H       0.68       4.85       0.01
H      -2.22       7.74      -1.34
H      -3.57       5.88      -1.25
C       0.46       8.17       0.74
C      -0.70       8.48       0.01
C       0.96       6.86       0.73
C       2.53       9.22       1.66
H      -0.46      10.44       2.23
H       3.71      10.70       2.81
H      -1.08       9.50      -0.01
H       1.83       6.61       1.34
H       3.18       8.47       1.25
N      -1.95       3.43      -2.79
N      -1.54       5.18      -1.48
N       1.56      10.91       2.79
N       1.15       9.17       1.48
C      -1.00       4.13      -2.17
C      -3.16       4.04      -2.46
C      -0.85       6.18      -0.74
C       0.30       5.87      -0.01
C      -1.35       7.49      -0.73
C      -2.92       5.13      -1.66
