26

C      -0.03       6.15       4.49
C      -2.07       5.66       3.17
C      -3.75       3.95       1.76
C      -5.46       3.51       0.02
C      -5.43       1.32      -0.03
C      -4.56       1.70       0.96
C      -0.22       8.30       4.77
C      -1.32       7.91       4.06
C      -1.56       4.47       2.62
C      -4.26       5.13       2.30
C      -3.42       5.99       3.01
C      -2.40       3.62       1.92
H       0.33       5.13       4.55
H      -5.69       4.54      -0.18
H      -5.72       0.31      -0.31
H      -3.95       1.13       1.65
H       0.07       9.30       5.10
H      -2.16       8.47       3.68
H      -0.50       4.23       2.71
H      -5.32       5.37       2.20
H      -3.82       6.90       3.46
H      -2.01       2.72       1.46
N      -5.97       2.46      -0.61
N      -4.58       3.09       0.99
N       0.58       7.19       5.03
N      -1.20       6.53       3.88
