26

C       7.72      14.11       3.50
C       8.14      16.16       4.82
C       9.81      17.89       6.23
C      10.20      19.62       7.97
C      12.39      19.65       8.01
C      12.03      18.77       7.03
C       5.56      14.24       3.21
C       5.92      15.36       3.92
C       9.35      15.69       5.36
C       8.61      18.37       5.68
C       7.78      17.51       4.97
C      10.18      16.56       6.07
H       8.74      13.78       3.44
H       9.16      19.81       8.17
H      13.38      19.97       8.30
H      12.62      18.18       6.34
H       4.57      13.93       2.88
H       5.33      16.18       4.30
H       9.62      14.64       5.28
H       8.34      19.42       5.79
H       6.86      17.88       4.53
H      11.09      16.19       6.53
N      11.23      20.16       8.60
N      10.64      18.75       7.00
N       6.69      13.48       2.96
N       7.30      15.27       4.11
