264

Cr       9.27      14.59      14.13
Cr       9.23       4.31       4.71
Cr       3.68       5.20      14.13
Cr       3.73      13.70       4.71
Cr       7.55      11.64      14.11
Cr       7.53       7.26       4.72
Cr       1.96       2.26      14.11
Cr       2.03      16.64       4.72
Cr      11.02      11.67      14.14
Cr      11.00       7.23       4.70
Cr       5.43       2.29      14.14
Cr       5.50      16.61       4.70
H       6.09       8.84       8.25
H       7.26       7.77      10.83
H       0.55      18.44       8.23
H       1.67      17.28      10.80
H       1.70      12.16       7.95
H       1.43       6.82      10.95
H       7.61       3.02       8.10
H       7.07      16.21      10.94
H      10.43      11.59      18.03
H      10.39      11.01       1.60
H       4.63      17.16      17.22
H       4.68      16.56       0.79
H       0.36       9.47      10.55
H       0.34       9.76       8.14
H       5.87       0.10      10.54
H       5.85       0.39       8.13
H       0.35      16.27      17.41
H      10.73       2.94       1.12
H       4.39       6.14      17.88
H       5.91      12.01       1.43
H      10.50      16.58       1.93
H       9.80       3.03      16.42
H       4.28       6.58       2.57
H       4.96      11.67      16.90
H       3.18      11.52       1.10
H       2.45       7.81      17.51
H       8.05       1.76       1.29
H       8.59      16.84      17.70
H       2.73      12.20      16.39
H       2.06       7.24       2.12
H       7.46       2.23      16.83
H       8.26      16.12       2.41
H       1.71      16.98       8.44
H       0.56      18.77      10.60
H       7.34       7.46       8.48
H       6.07       9.20      10.63
H       2.18      10.92       9.71
H       1.75       8.18       9.17
H       7.67       1.51       9.75
H       7.37      17.56       9.17
H       9.03      14.95       6.98
H       9.95       1.94      10.77
H       3.39       5.41       7.05
H       4.27      11.52      11.02
H       9.15      15.71      11.19
H       0.58       2.19       7.62
H       3.55       6.30      11.17
H       3.80      12.27       7.68
H       8.02       7.48       0.85
H       8.05       8.08      17.27
H       2.73       1.61       1.59
H       2.70       2.21      18.01
C       6.88      13.84      12.23
C       6.87       5.07       6.61
C       1.29       4.45      12.23
C       1.35      14.44       6.60
C       9.41      10.08      12.17
C       9.40       8.82       6.66
C       3.82       0.71      12.16
C       3.90      18.21       6.66
C      10.96      13.74      12.03
C      11.04       5.11       6.80
C       5.37       4.35      12.04
C       5.43      14.54       6.80
C       6.98      13.78      16.09
C       6.86       5.06       2.81
C       1.30       4.46      16.02
C       1.45      14.50       2.73
C       9.39      10.13      16.09
C       9.38       8.78       2.76
C       3.79       0.73      16.08
C       3.89      18.16       2.75
C       0.43      14.04      16.05
C       0.28       4.91       2.69
C       5.33       4.36      16.23
C       5.98      14.24       2.78
C       9.30       9.46       7.97
C       9.32       9.61      10.79
C       3.72       0.11       7.96
C       3.74       0.27      10.77
C       8.11       9.48       8.71
C       8.11       9.64      10.09
C       2.52       0.18       8.69
C       2.53       0.34      10.07
C      10.51       9.57      10.05
C      10.49       9.68       8.67
C       4.92       0.22      10.03
C       4.91       0.33       8.65
C       7.00       8.48       8.76
C       6.98       8.68      10.26
C       1.45      18.02       8.73
C       1.44      18.21      10.23
C       0.94      12.77       9.87
C       0.89       6.13       8.97
C       6.54       3.43       9.92
C       6.39      15.56       8.99
C       1.13      12.90       8.50
C       0.99       6.02      10.36
C       6.85       3.62       8.58
C       6.57      15.44      10.37
C       0.65      13.97       7.80
C       0.60       4.88      11.01
C       6.23       4.60       7.83
C       6.16      14.31      11.04
C      10.75      14.77       8.37
C      10.91       3.93      10.33
C       5.17       5.32       8.38
C       5.25      13.44      10.43
C      10.59      14.78       9.77
C      11.02       3.86       8.94
C       5.00       5.36       9.76
C       5.17      13.41       9.03
C       0.15      13.77      10.56
C       0.36       5.01       8.22
C       5.67       4.38      10.58
C       5.72      14.49       8.27
C       9.92      10.71      18.39
C       9.89      10.33       0.92
C       4.24      17.89      17.91
C       4.28      17.50       0.44
C       9.23       9.21       1.38
C       9.30       9.83      17.49
C       3.80      18.46       1.35
C       3.64       0.34      17.46
C       8.54       8.36       0.49
C       8.56       8.74      17.96
C       3.13       0.88       0.89
C       3.09       1.27      18.36
C       0.73      15.44      17.99
C       0.10       3.76       0.58
C       5.03       5.44      18.39
C       6.28      12.85       0.84
C       0.68      15.37       0.52
C      11.09       3.88      18.04
C       5.29       5.49       0.90
C       6.21      12.91      18.30
C       1.16      14.27       1.31
C       0.70       4.87      17.30
C       6.17       4.59       1.58
C       6.67      14.01      17.52
C       1.67      13.11       0.65
C       1.14       6.05      17.94
C       6.56       3.39       0.95
C       7.15      15.19      18.17
C       1.65      13.19      18.07
C       1.10       5.99       0.52
C       6.32       3.37      18.39
C       7.17      15.11       0.74
C       1.07      14.26      17.35
C       0.63       4.85       1.26
C       5.61       4.39      17.68
C       6.61      14.03       1.48
C      11.15      16.62       1.07
C      10.23       2.85      17.40
C       4.64       6.65       1.54
C       5.60      11.65      17.77
C       2.24      11.96       1.41
C       1.64       7.20      17.14
C       7.22       2.30       1.72
C       7.66      16.36      17.40
C       2.24      12.03      17.34
C       1.49       7.26       1.19
C       6.83       2.15      17.71
C       7.75      16.28       1.47
C       1.68      11.58      10.41
C       1.48       7.40       8.46
C       7.22       2.20      10.46
C       7.04      16.80       8.46
C       9.82      15.50       7.49
C      10.06       2.97      11.08
C       4.20       5.99       7.47
C       4.40      12.56      11.26
C       9.78      15.88      10.35
C      10.88       2.53       8.27
C       4.17       6.46      10.32
C       4.57      12.20       8.42
O      10.68      14.87      12.63
O      10.63       4.03       6.21
O       5.09       5.48      12.63
O       5.13      13.41       6.21
O       7.91      14.46      12.71
O       7.87       4.44       6.12
O       2.32       5.08      12.71
O       2.37      13.82       6.12
O       6.60      12.67      12.59
O       6.58       6.23       6.24
O       1.01       3.28      12.59
O       1.08      15.62       6.24
O       8.34      10.53      12.71
O       8.33       8.36       6.12
O       2.75       1.15      12.71
O       2.83      17.75       6.12
O      10.58      10.33      12.62
O      10.57       8.57       6.21
O       4.99       0.95      12.62
O       5.07      17.95       6.21
O       0.52      12.88      12.74
O       0.49       6.02       6.09
O       6.02       3.49      12.74
O       6.08      15.41       6.09
O      10.66      14.89      15.65
O      10.62       4.01       3.18
O       5.07       5.50      15.65
O       5.12      13.40       3.18
O       7.89      14.48      15.52
O       7.85       4.42       3.32
O       2.30       5.09      15.52
O       2.35      13.81       3.32
O       6.59      12.69      15.61
O       6.57       6.21       3.22
O       1.00       3.30      15.61
O       1.06      15.60       3.22
O       8.32      10.55      15.51
O       8.32       8.35       3.32
O       2.73       1.17      15.51
O       2.82      17.73       3.32
O      10.56      10.35      15.64
O      10.56       8.55       3.19
O       4.97       0.97      15.64
O       5.06      17.93       3.19
O       0.50      12.89      15.54
O       0.48       6.01       3.29
O       6.00       3.51      15.54
O       6.07      15.39       3.29
O       9.28      12.63      14.12
O       9.25       6.27       4.71
O       3.69       3.25      14.12
O       3.75      15.65       4.71
O       0.25      17.70       0.53
O      10.00       1.79      17.96
O       4.50       7.71       0.94
O       5.79      10.58      18.32
O       1.64      11.47       2.36
O       1.11       7.49      16.08
O       6.80       1.98       2.82
O       7.04      16.81      16.44
O       2.13      10.89      17.75
O       1.17       8.34       0.74
O       6.59       1.04      18.15
O       7.60      17.42       1.07
O       1.78      11.28      11.58
O       1.75       7.63       7.30
O       7.31       1.89      11.63
O       7.31      17.01       7.30
O       9.97      16.69       7.26
O       9.50       3.34      12.10
O       4.34       7.16       7.17
O       3.87      13.01      12.27
O       9.83      17.02       9.91
O       9.87       1.85       8.39
O       4.21       7.58       9.85
O       4.98      11.09       8.72
