10

O       3.61      -0.88      13.26
O       1.92       0.36      12.67
O      -1.63      -3.22      13.26
H       2.10      -2.82      12.80
H      -0.12      -1.29      12.80
O       0.06      -4.47      12.67
C       2.42      -0.77      12.91
C       1.63      -2.02      12.84
C      -0.44      -3.34      12.91
C       0.35      -2.09      12.84
