10

H       0.48       6.93       0.91
H       2.70       5.39       0.91
O      -1.03       4.99       0.45
O       0.66       3.75       1.04
O       4.21       7.33       0.45
O       2.52       8.57       1.04
C       0.16       4.87       0.80
C       0.95       6.13       0.87
C       3.02       7.44       0.80
C       2.23       6.19       0.87
