10

O      -2.88       3.29       7.31
O      -4.74       4.27       7.89
H      -1.80       5.50       7.77
O      -3.06       9.03       7.31
H      -4.14       6.82       7.77
O      -1.20       8.05       7.89
C      -3.51       4.31       7.66
C      -2.72       5.57       7.72
C      -2.43       8.01       7.66
C      -3.22       6.75       7.72
