20

Zn       6.46       5.35       5.43
Zn       3.38       5.35       5.43
C       4.93       7.89       5.42
C       4.96       5.23       2.83
C       4.91       2.81       5.44
C      10.65       6.42       4.97
C      10.66       4.24       5.80
C       9.22       4.25       5.83
C       9.24       6.43       4.99
C       4.88       5.38       8.03
N      11.37       5.36       5.42
N       8.51       5.36       5.42
O       6.08       7.30       5.43
O       3.78       7.30       5.43
O       6.11       5.34       3.44
O       3.81       5.34       3.44
O       6.06       3.40       5.43
O       3.76       3.40       5.43
O       6.03       5.36       7.42
O       3.73       5.36       7.42
