16

C       0.92       7.82       2.44
S       0.85       6.70      -2.50
H       0.06       7.15       0.08
H       4.79       8.61      -0.08
S       4.00       9.06       2.50
C       3.14       7.85      -1.25
O       1.46       7.95       3.66
O       3.38       7.81      -3.66
C       1.10       7.49       0.04
O      -0.34       7.56       2.36
C       3.93       7.95      -2.44
O       5.19       8.22      -2.36
C       1.76       7.45      -1.17
C       3.09       8.31       1.18
C       3.76       8.27      -0.03
C       1.71       7.91       1.25
