16

C       4.03      -1.91       8.20
S       3.95      -6.73       6.64
S       0.96      -1.11       7.13
H       4.80      -4.30       7.55
O       5.28      -2.17       8.43
H       0.10      -3.53       6.22
O       1.37      -7.07       5.10
C       3.08      -5.18       6.66
O       3.53      -0.77       8.69
C       1.70      -4.98       6.26
O      -0.37      -5.66       5.35
C       0.87      -5.92       5.57
C       3.21      -2.86       7.51
C       3.78      -4.13       7.24
C       1.83      -2.66       7.11
C       1.13      -3.70       6.53
