24

Na       1.42       4.17      11.26
Na      -1.25       6.70      10.72
O       0.46       6.65      15.50
Zn       0.57       4.45       8.21
Zn      -0.40       6.42      13.76
C      -1.49       3.70      10.11
C      -1.50       4.12      13.13
C       3.17       3.21       8.76
C      -1.05       5.21       6.12
C       1.66       7.17      11.87
C       1.67       6.75       8.84
C      -3.00       7.65      13.21
C       1.22       5.66      15.86
O      -2.13       4.69       9.71
O      -0.32       3.34       9.72
O      -0.68       4.84      12.40
O       2.20       3.34       7.93
O       3.16       3.53       9.98
O      -0.29       4.22       6.47
O       2.30       6.17      12.26
O       0.48       7.52      12.26
O       0.85       6.02       9.57
O      -2.03       7.52      14.04
O      -2.99       7.34      11.99
