11

Cu      11.59       6.51      15.03
C      13.04       6.17      17.31
C      13.27       4.79      13.33
N      12.45       4.80      14.40
N      10.49       8.05      15.69
O      11.83       5.88      16.90
O      11.04       7.00      13.17
C      12.22       3.65      15.07
C      11.88       7.88      12.72
C       9.30       8.31      15.11
C      10.90       8.79      16.74
