28

H       5.56       9.80       6.16
H       8.12       9.16       9.18
H       6.01      12.54       9.07
H       8.32       9.60      11.31
H       9.52      10.30      13.15
H       8.70      14.09      12.16
H       7.57      13.37      10.30
O       4.42      13.36       7.36
O       4.09      11.79       5.76
O       6.69       7.67       5.86
O       8.10       7.25       7.57
O      10.48      11.86      14.83
O      10.04      13.99      14.31
C       5.64      11.35       7.49
C       5.97      10.09       6.95
C       6.89       9.28       7.59
C       7.50       9.70       8.76
C       7.19      10.94       9.31
C       6.24      11.73       8.68
C       4.63      12.22       6.84
C       7.25       7.96       6.95
C       7.90      11.40      10.57
C       8.43      10.51      11.46
C       9.13      10.93      12.58
C       9.26      12.28      12.85
C       8.65      13.18      11.98
C       7.97      12.75      10.86
C       9.97      12.76      14.09
