60

N      12.57      21.60      31.06
H      13.17      20.87      31.45
H      11.55      23.95      34.01
H      11.56      21.00      37.13
H      12.16      19.80      33.03
N      11.69      24.84      36.58
H      12.54      24.91      36.00
N      11.12      18.41      36.45
H      10.40      19.11      36.72
H       9.36      17.94      38.29
H       9.01      15.81      39.52
H      11.66      23.58      29.41
H      11.55      23.41      26.92
H      12.12      13.96      37.22
C      11.68      22.92      34.34
C      11.92      20.25      35.12
H      13.29      19.59      29.59
C      11.90      21.93      33.37
C      11.86      22.36      31.94
C      12.03      20.60      33.77
C      11.58      22.59      35.69
H      13.16      19.43      27.10
O      11.21      23.38      31.61
C      11.17      23.58      36.73
C      11.69      21.24      36.08
O      10.38      23.24      37.62
H      13.07      27.05      36.56
H      12.44      29.21      37.63
C      12.48      21.59      29.66
H       9.51      25.22      38.15
H       8.89      27.38      39.22
C      11.32      26.01      37.27
O      12.79      20.31      24.80
C      12.34      21.41      26.86
O      12.03      22.44      24.73
C      12.05      18.81      35.52
C      10.98      17.16      37.09
C      12.37      21.39      25.37
C       9.77      15.88      38.75
C      10.22      13.47      39.12
C      11.98      22.68      28.91
C      11.91      22.57      27.52
O       9.44      13.48      40.13
C      11.53      14.84      37.45
C      10.63      28.43      38.50
C      10.21      29.70      39.13
C      12.90      20.42      29.00
C      10.54      14.74      38.44
C      12.83      20.33      27.61
C       9.98      17.07      38.07
C      11.81      28.34      37.74
C      12.16      27.13      37.14
H      12.53      16.11      36.02
C      10.14      26.09      38.03
C       9.81      27.30      38.64
C      11.77      16.04      36.78
O      12.93      18.08      35.04
O      10.80      30.79      38.77
O      10.73      12.37      38.64
O       9.28      29.63      40.00
