60

C      11.44       3.89      20.60
C      11.73      17.29      20.73
C      10.89       5.01      18.53
C      10.69       6.20      20.64
C      11.09       5.05      21.31
C      11.22      16.16      21.40
C      12.13      18.46      21.52
C      10.87      15.03      20.68
C      11.54      16.13      18.60
C      11.31       3.88      19.20
C       9.66      10.92      10.60
C       7.57      10.14      11.57
C      12.04       2.70      21.28
C      11.89      17.26      19.34
C       7.05       9.98      10.29
N      10.64      13.81      18.64
N      10.25       7.33      18.46
N       9.48      10.70      13.01
H      10.05      13.20      19.23
H      10.22       7.13      17.47
H      10.31      11.28      13.09
O      10.85       9.00      19.91
H       9.53       8.35      16.09
O       8.23       9.11      14.10
H      10.81      11.21      19.04
H      10.04      12.49      15.01
O      11.35      14.13      16.46
O       7.84      10.65       6.81
H       9.70      11.07       8.45
H      10.81       5.01      17.44
O      12.75      19.48      21.03
O      11.94      18.49      22.80
H      10.46       7.11      21.19
H      11.11      16.18      22.48
H      11.17       5.03      22.39
O      11.91       2.66      22.59
O      12.67       1.86      20.62
H      10.47      14.16      21.19
H      11.64      16.11      17.53
H      11.58       2.97      18.66
H      10.69      11.28      10.73
H       6.96       9.92      12.44
H      12.29      18.14      18.83
H       6.03       9.64      10.17
C       9.83       9.36      16.39
C      10.47       8.64      18.78
C      10.52      10.99      18.02
C      10.25       9.65      17.69
C      10.86      13.41      17.35
C      10.47      12.00      17.05
C       7.22      10.13       7.81
O       6.12       9.48       7.75
C       9.74      10.37      15.42
C      10.61       6.20      19.24
C       7.82      10.30       9.16
C      10.10      11.68      15.74
C       9.10      10.00      14.13
C      11.02      15.01      19.28
C       8.90      10.58      11.73
C       9.12      10.80       9.33
