60

C      10.06      17.40      30.99
C      10.39      16.19      30.39
C       8.42      27.46      32.25
H      10.83      25.55      30.74
H      11.18      27.68      29.51
H       8.53      19.92      39.61
H       8.64      20.08      42.10
H       8.07      29.53      31.81
H       6.90      23.90      39.44
H       7.03      24.06      41.93
H       7.76      14.28      31.41
H       7.13      16.45      32.47
H      10.69      18.27      30.87
H      11.31      16.10      29.81
H       7.66      27.38      33.01
N       7.62      21.89      37.97
N       9.07      25.08      32.58
N       8.51      18.66      32.43
C       8.28      23.24      33.91
C       8.52      20.57      34.68
C       8.33      21.13      37.08
C       8.51      22.25      32.95
C       8.30      21.56      35.65
C       8.16      22.90      35.26
C       8.63      20.91      33.33
C       9.05      19.92      32.29
C      10.21      26.42      30.96
O       8.98      20.11      37.42
C       7.72      21.90      39.37
O       9.87      20.25      31.42
C       8.88      17.49      31.75
O       7.27      25.41      34.01
C       7.85      22.08      42.17
O       9.38      12.70      30.22
O       7.41      23.18      44.22
C       8.15      24.68      33.51
C       9.21      26.33      31.94
O       8.16      21.05      44.30
O      10.92      13.86      29.04
C       7.82      22.10      43.66
C      10.42      27.61      30.28
C       9.97      30.03      29.92
C       8.21      20.82      40.12
C       8.28      20.92      41.51
O       9.46      31.12      30.40
C       8.66      28.65      31.57
O      10.76      30.01      28.91
C       9.57      15.06      30.54
C       9.98      13.79      29.89
C       7.29      23.07      40.03
H       7.66      18.60      33.00
C       9.65      28.75      30.59
C       7.36      23.16      41.42
H       7.02      22.63      37.58
H       9.79      24.39      32.31
C       8.39      15.16      31.29
H       8.64      22.51      31.90
H       8.03      23.69      35.99
C       8.04      16.36      31.89
H       8.65      19.54      35.01
