17

C       0.96      -6.87      15.91
C      -2.82      -5.53      19.24
C      -1.23      -6.10      17.29
C      -2.43      -5.66      17.83
C       0.96      -6.87      17.25
S      -3.57      -5.26      16.58
O      -4.04      -5.15      13.73
H       1.82      -7.15      15.32
C      -2.43      -5.66      15.33
O      -0.13      -6.50      15.13
O      -1.96      -5.81      13.04
O      -4.04      -5.15      19.43
O      -0.13      -6.50      18.03
O      -1.96      -5.81      20.12
C      -2.82      -5.53      13.92
C      -1.23      -6.10      15.87
H       1.82      -7.15      17.84
