13

N       3.94       3.27       5.66
O       8.78       4.29       5.13
H       6.51       4.37       7.56
H       4.00       4.30       7.45
H       4.04       2.24       3.88
H       6.56       2.21       3.83
C       8.24       3.29       5.70
C       6.74       3.29       5.69
C       6.03       2.68       4.65
C       4.64       2.69       4.67
C       6.01       3.88       6.73
C       4.62       3.85       6.67
O       8.78       2.29       6.27
