13

N      -1.84       6.61       3.67
C      -2.60       9.10       2.63
C      -3.02       7.17       4.01
C      -1.38       8.51       2.28
C      -1.04       7.27       2.81
C      -3.43       8.41       3.51
C      -2.97      10.46       2.07
O      -4.17      10.84       2.30
H      -3.63       6.60       4.70
H      -0.70       9.03       1.60
H      -0.11       6.77       2.55
H      -4.39       8.84       3.80
O      -2.07      11.07       1.43
