33

H       6.96       0.72       7.94
H       9.15       4.27       8.65
H      10.18       2.20      10.21
H       4.07       3.80       7.12
H       4.10       0.02       5.24
H       6.71       0.85       5.58
H       6.33       6.14       5.94
H       6.08       4.04       9.62
H       4.95       6.56       9.90
B       6.95       3.45       6.92
H       9.59       4.64       6.42
H       8.08       4.75       2.49
H       6.25       3.43       4.13
N       7.83       2.70       7.95
N       8.64       1.07       9.23
N       5.75       2.58       6.49
N       3.65       1.95       6.15
N       6.42       4.74       7.60
N       5.51       6.75       7.82
N       7.74       3.86       5.64
N       9.19       4.90       4.32
C       7.72       1.39       8.31
C       8.88       3.22       8.70
C       9.38       2.21       9.48
C       4.44       2.91       6.64
C       4.48       0.95       5.66
C       5.78       1.34       5.85
C       6.12       5.91       6.98
C       5.96       4.85       8.91
C       5.41       6.09       9.03
C       8.94       4.49       5.57
C       8.11       4.52       3.55
C       7.21       3.88       4.35
