16

O       5.45      10.82      52.44
O       6.96       9.15      52.55
O       5.58       8.62      59.45
O       4.45      10.56      59.37
H       4.00      11.31      57.03
H       4.42      11.43      54.55
C       5.38       9.70      57.34
C       4.94      10.71      55.17
C       4.71      10.64      56.54
C       5.87       9.84      54.57
C       6.54       8.90      55.36
C       6.14       9.92      53.09
C       5.10       9.65      58.81
C       6.29       8.82      56.73
H       6.79       8.07      57.33
H       7.27       8.23      54.91
