33

N       0.14      11.30       5.91
N       1.05      13.32       5.69
N      -1.17      10.42       7.87
N      -2.63      11.46       9.19
B      -0.39      10.02       6.59
H      -0.40       7.28       5.58
H      -2.59      10.83       4.86
H      -3.62       8.76       3.30
H       2.50      10.37       6.39
H       2.46       6.58       8.27
H      -0.15       7.42       7.93
H       0.23      12.70       7.57
H       0.49      10.60       3.90
H       1.61      13.13       3.62
H      -3.03      11.21       7.09
H      -1.51      11.31      11.02
H       0.32      10.00       9.38
C      -1.16       7.95       5.20
C      -2.32       9.79       4.82
C      -2.82       8.77       4.03
C       2.12       9.47       6.87
C       2.08       7.51       7.85
C       0.78       7.90       7.66
C       0.45      12.48       6.53
C       0.60      11.41       4.60
C       1.15      12.66       4.48
C      -2.38      11.06       7.94
C      -1.55      11.08       9.96
C      -0.64      10.44       9.16
N      -1.27       9.26       5.56
N      -2.08       7.63       4.28
N       0.81       9.14       7.02
N       2.91       8.51       7.36
