33

B       9.67       6.18      20.10
H      12.41       6.17      19.09
H       8.86       3.98      18.37
H      10.93       2.95      16.81
H       9.32       9.06      19.90
H      13.10       9.03      21.78
H      12.27       6.42      21.44
H       6.99       6.80      21.08
H       9.09       7.05      17.41
H       6.56       8.18      17.13
H       8.48       3.53      20.60
H       8.38       5.05      24.53
H       9.69       6.88      22.89
C      11.74       5.41      18.71
C       9.90       4.24      18.33
C      10.92       3.74      17.54
C      10.22       8.68      20.38
C      12.18       8.65      21.36
C      11.79       7.34      21.17
C       7.21       7.01      20.04
C       8.28       7.16      18.11
C       7.03       7.72      17.99
C       8.63       4.19      21.45
C       8.61       5.01      23.47
C       9.25       5.92      22.67
N      10.43       5.29      19.08
N      12.06       4.49      17.80
N      10.55       7.37      20.53
N      11.18       9.47      20.87
N       8.39       6.70      19.42
N       6.37       7.61      19.20
N       9.27       5.39      21.38
N       8.22       3.93      22.70
