16

C      11.67      10.04      35.77
C      11.94       9.99      37.24
C      11.27       9.05      38.03
C      11.51       8.98      39.40
C      12.44       9.84      40.01
C      13.10      10.79      39.22
C      12.85      10.87      37.85
C      12.70       9.77      41.49
H      10.56       8.38      37.55
H      10.99       8.26      40.03
H      13.84      11.46      39.67
H      13.36      11.62      37.24
O      12.01       8.87      42.13
O      13.52      10.54      42.03
O      12.15      11.07      35.13
O      11.01       9.13      35.20
