16

C       4.23       6.59      25.71
C       4.31       6.84      24.34
C       3.21       6.98      27.97
O       2.31       7.68      28.62
O       3.98       6.16      28.52
O       4.51       7.54      21.62
O       2.56       8.68      21.69
H       1.82       9.13      24.04
H       1.70       8.70      26.52
H       4.89       5.85      26.16
H       5.05       6.33      23.73
C       3.48       8.02      22.26
C       3.43       7.75      23.73
C       2.48       8.42      24.52
C       2.42       8.18      25.89
C       3.28       7.25      26.50
