16

O       8.87      12.01      11.91
H       8.38      10.56      16.49
H       8.26      10.99      14.01
O       9.13      11.01      18.84
C      10.87      12.85      16.20
C       9.77      12.70      12.56
C      10.04      11.67      18.28
C       9.99      11.94      16.80
C       9.05      11.27      16.01
C       8.98      11.50      14.64
C       9.84      12.44      14.04
C      10.79      13.10      14.83
H      11.46      13.84      14.38
H      11.62      13.36      16.80
O      11.07      12.15      18.91
O      10.54      13.52      12.01
