22

O      16.99      11.17       7.66
O      20.73      13.64       7.66
O      20.99       9.17       7.65
Cr      21.11      12.22       8.90
Cr      18.04      12.21       8.90
Cr      19.57       9.55       8.90
O      19.58      11.32       8.88
C      19.63      13.77       7.00
C      17.42      10.15       7.00
C      21.66      10.06       7.00
C      17.49      10.05      10.82
C      19.51      13.77      10.82
C      21.72      10.16      10.81
O      18.50      13.30       7.39
O      18.40       9.40       7.39
O      21.83      11.27       7.39
O      17.35      11.27      10.43
O      20.64      13.28      10.43
O      20.73       9.43      10.43
O      18.41      13.63      10.16
O      18.15       9.16      10.15
O      22.15      11.18      10.15
