20

C      17.71      15.33      18.58
Zn      19.60      17.68      18.94
Zn      19.59      16.30      16.62
O      21.04      15.09      17.44
O      21.07      16.29      19.37
C      18.36      15.28      14.08
C      21.47      15.34      18.62
C      18.37      18.70      21.49
C      21.46      18.64      16.93
N      19.53      15.52      14.70
N      19.54      18.45      20.87
O      18.15      15.05      17.41
O      18.09      16.30      19.30
C      20.70      18.72      21.51
O      18.16      18.94      18.15
O      18.10      17.69      16.26
C      17.72      18.67      16.99
C      20.69      15.26      14.07
O      21.04      18.89      18.11
O      21.07      17.68      16.19
