22

O      12.39       5.83      25.41
O       8.65       3.37      25.41
Cr       8.28       4.79      26.66
Cr      11.35       4.80      26.66
Cr       9.81       7.45      26.66
O       8.39       7.84      25.41
O       9.81       5.68      26.68
C       9.75       3.24      24.75
C      11.96       6.85      24.75
C       7.73       6.96      24.75
C      11.90       6.96      28.57
C       9.87       3.23      28.57
C       7.67       6.86      28.57
O      10.88       3.72      25.13
O      10.97       7.58      25.13
O       7.59       5.74      25.13
O      12.07       5.74      28.18
O       8.74       3.70      28.18
O       8.64       7.60      28.18
O      10.97       3.37      27.91
O      11.23       7.84      27.91
O       7.24       5.83      27.91
