18

C       1.61      17.09      12.84
Zn       7.21      19.61      12.63
O       5.01      15.31      10.85
C       9.92      19.52      11.29
Zn       4.31      16.99      11.49
C       1.43      15.82      11.05
C      10.10      20.79      13.08
N       2.33      16.48      11.81
O       6.52      21.29      13.27
C       6.16      15.45      10.24
C       5.37      21.15      13.89
O       4.14      18.72      10.59
O       5.28      17.08      13.27
O       7.39      17.89      13.54
C       6.49      16.98      13.65
O       6.25      19.53      10.86
C       5.04      19.62      10.47
N       9.20      20.12      12.32
