11

N      10.29       4.44      16.30
O       9.96       3.92      19.29
O      13.11       3.92      16.89
Zn      11.53       4.66      18.10
C      10.47       3.47      15.38
C       9.39       5.41      16.05
C      13.51       5.11      16.65
C      12.59       3.47      20.81
C      13.68       5.41      20.14
C       9.56       5.11      19.54
N      12.78       4.44      19.89
