420

H      22.02       4.30      35.40
H      21.79       3.97       1.30
H      20.42       7.52       1.24
H      23.71       9.30      36.26
H      24.07       8.49      34.89
H      14.19      17.16      22.68
H      14.59      17.13      26.75
H      16.75      14.28      22.71
H      19.77      16.44      25.80
H      19.23      17.20      27.14
H      22.13      10.99      36.24
H      21.26      11.26       2.83
H      20.36      12.76       2.69
H      21.09       9.74       1.30
H      20.56      13.92      22.76
H      20.20      11.88      27.17
H      21.09      13.35      27.63
H      21.88      11.78      27.66
H      19.31      13.96      26.19
H      18.28      18.01      33.32
H      16.06      16.26      30.96
H      15.97      16.98      32.58
H      17.30      15.87      32.15
H      15.61      18.07      29.22
H      13.70      17.89      18.34
H      13.55      19.27      17.26
H      25.39       5.89      28.84
H      22.90       4.35      31.07
H      24.17       3.79      29.99
H      23.03       5.05      29.47
H      23.72       4.62      33.21
H      15.15      14.63      22.76
H      13.06      18.47      20.49
H      13.03      17.66      16.74
H      19.92       5.96       1.13
H      18.24       3.52      35.43
H      19.35       4.73      35.48
H       3.51      25.96       0.35
H       4.44      26.05       1.70
H      13.79      14.52      26.58
H      12.19      14.17      26.69
H       9.01      16.13      23.53
H       9.54      16.84      22.17
H       6.69      21.72       9.98
H       6.90      21.36      14.05
H       4.24      20.84      13.95
H       3.11      22.03      14.01
H       5.41      18.13      10.01
H       4.88      19.67      10.12
H       8.73      16.41      13.17
H       9.12      17.26      14.50
H       3.47      25.80      11.03
H       4.38      25.75       9.68
H       0.89      25.20      14.01
H      15.12       1.15      15.42
H       8.34      13.92      23.52
H       8.53      13.03      28.27
H       9.94      13.64      26.74
H       7.15      14.67      13.22
H       8.54      11.79      14.45
H       7.79      13.31      14.94
H      16.02       0.40      35.48
H      16.68       1.47       0.75
H      20.70       0.33       7.88
H       7.16      25.44       3.43
H       7.24      22.52       5.67
H       8.40      23.39       4.66
H       6.79      22.97       4.04
H      20.30       3.12       5.52
H      20.96       2.85       7.13
H      19.34       2.25       6.71
H      22.09       2.61       3.78
H       7.28      23.37       7.80
H       9.57      18.71      20.65
H      11.12      19.28      16.12
H       6.92      19.79      18.33
H       7.57      20.28      19.89
H       7.18      18.57      19.57
H       8.19      20.91      16.51
H      14.44       1.74       1.72
H      15.26       0.23       2.18
H      10.55       3.72      13.96
H       8.18       7.61       9.99
H      12.70       0.51      10.79
H      -0.68      23.96       9.56
H       0.20      25.45       9.14
H      -1.55      25.40       9.08
H      13.37       1.12      15.55
H      -0.82      25.79      15.81
H      12.14       2.03      14.02
H       1.55      24.13      10.58
H       5.15      13.78      22.28
H       6.00      12.27      21.86
H       6.84      13.82      21.80
H       7.68      11.49      28.14
H       6.81      12.98      28.54
H       6.58      11.09      10.04
H       6.82      11.84      14.90
H       6.19      14.39       8.48
H       5.21      12.93       8.65
H       6.93      12.83       8.22
H       6.02      15.91      10.02
H       7.18       9.99      13.47
H      13.50       0.33       2.22
H      -1.73      24.55      33.93
H       0.02      24.44      34.09
H      -0.75      25.98      33.67
H      21.89      12.75      20.94
H      22.08      12.78       3.09
H       9.45       4.93      13.86
H       6.96       3.95       9.95
H       6.79       4.31      14.02
H       8.67       6.05      10.03
H       4.79       9.15      13.08
H       4.41       8.30      14.42
H      -4.65      26.13      10.81
H       9.57       0.08       9.44
H      -8.33      21.32      35.42
H      -8.12      21.68       1.33
H      -6.34      19.64       1.23
H      -6.81      18.07       1.29
H      -4.58      22.01      35.46
H      -5.65      20.77      35.57
H      -4.75      25.74       0.44
H      -5.68      25.66       1.78
H      19.94      16.49      36.48
H      19.52      17.30      35.13
H      -0.47       8.52      22.70
H      -0.89       8.51      26.78
H      -0.01      11.07      26.67
H       1.59      11.45      26.73
H      -2.95      11.42      22.73
H      -1.34      11.11      22.85
H      24.09       9.41      25.89
H      24.63       8.64      27.23
H       4.67       9.27      23.75
H       4.18       8.51      22.40
H      21.75      14.55       1.29
H      -6.58      13.82      35.01
H      21.88      13.84      34.58
H      22.79      12.34      34.52
H      -7.85      15.66      36.02
H       5.44      11.80      26.73
H       4.19      11.76      23.30
H      -2.45      25.24       0.50
H      -2.97      23.65      35.46
H      23.38      11.65      25.94
H      -6.57      12.61      21.20
H      -7.35      14.18      21.37
H      -5.17      11.99      22.74
H       4.18       7.07      20.60
H       2.51       6.24      16.16
H      -0.05       7.64      18.40
H       0.11       6.20      17.38
H       0.56       7.81      16.77
H       6.80       6.02      18.24
H       6.23       5.58      19.85
H       6.53       7.28      19.44
H       5.47       4.73      16.50
H       0.66       7.18      20.53
H      18.40      19.87      28.88
H      -9.30      21.39      31.12
H     -10.62      21.97      30.11
H      -9.46      20.78      29.49
H     -10.05      21.01      33.25
H      -7.16      25.31       7.92
H       6.66       0.23       3.39
H       6.57       3.16       5.62
H       5.45       2.34       4.54
H       7.11       2.69       4.02
H      -6.77      22.48       5.60
H      -7.51      22.80       7.17
H      -5.84      23.31       6.85
H      -8.37      23.03       3.78
H       6.39       2.31       7.77
H      25.67       7.53      33.37
H      -2.26       9.29      31.05
H      -2.17       8.48      32.61
H      -3.45       9.67      32.29
H      -1.93       7.62      29.23
C      21.30       5.23      37.17
C      21.99       5.18      35.91
C      22.70       6.29      35.37
C      22.71       7.51      36.10
C      21.93       7.65      37.28
C      21.26       6.50      37.84
C      15.10      16.10      24.96
C      16.21      15.46      24.31
C      17.52      15.43      24.92
C      17.75      16.25      26.07
C      16.66      16.81      26.79
C      15.36      16.70      26.23
C      21.77      11.36       0.11
C      21.65      12.45       1.04
C      22.11      11.72      36.95
C      21.32      12.29       2.49
C      21.52       9.99       0.41
C      21.15      13.41      23.43
C      20.69      13.30      24.77
C      21.53      12.60      25.68
C      21.16      12.39      27.11
C      19.48      13.95      25.19
C      17.49      18.38      30.06
C      17.50      17.83      31.38
C      18.35      18.39      32.38
C      16.66      16.67      31.78
C      16.59      17.98      29.06
C      13.07      18.35      17.59
C      24.62       6.17      32.14
C      24.56       5.72      30.78
C      25.43       6.26      29.80
C      23.61       4.67      30.31
C      23.87       5.60      33.20
C      20.64       4.04      37.68
C      19.53       3.40      37.03
C      18.86       2.28      37.64
C      19.45       1.67       0.62
C      20.47       2.33       1.34
C      21.03       3.52       0.79
C      13.74      16.08      24.44
C      13.44      16.70      23.19
C      12.12      16.76      22.65
C      11.06      16.16      23.38
C      11.33      15.41      24.56
C      12.66      15.40      25.11
C       5.54      21.60      11.76
C       5.92      22.15      10.50
C       5.34      23.33       9.95
C       4.30      23.96      10.69
C       3.72      23.32      11.83
C       4.41      22.21      12.42
C       6.22      20.42      12.27
C       6.21      19.15      11.60
C       6.90      18.01      12.15
C       7.70      18.17      13.33
C       7.65      19.39      14.07
C       6.90      20.48      13.53
C       8.19      13.41      25.55
C       7.71      13.53      24.22
C       9.51      13.89      25.85
C      15.42       0.60      37.49
C      16.59       1.32      37.91
C      21.42       0.82       4.62
C      20.94       1.09       5.93
C      21.00       0.08       6.93
C       6.39      24.91       6.70
C       6.84      24.63       5.37
C       6.81      25.66       4.37
C       7.34      23.30       4.92
C      20.36       2.40       6.34
C      21.52       1.81       3.61
C       6.50      23.98       7.78
C       9.42      19.45      17.35
C       8.99      19.25      18.69
C       9.90      18.79      19.68
C      11.26      18.48      19.41
C      11.69      18.65      18.06
C      10.78      19.14      17.07
C       7.58      19.49      19.14
C       8.61      20.02      16.34
C      12.13      18.11      20.48
C      13.21       0.63      12.83
C      14.21       0.19      13.76
C       0.17      25.48      13.33
C       0.31      25.03      12.00
C      -0.69      25.46      11.07
C      13.34       0.16      11.50
C      -0.68      25.05       9.63
C      14.23       0.56      15.21
C      12.14       1.54      13.13
C       1.45      24.28      11.58
C       7.31      12.77      26.48
C       6.04      12.28      26.05
C       5.58      12.39      24.72
C       6.45      13.04      23.79
C       6.10      13.24      22.36
C       7.61      12.56      27.93
C       6.71      14.29      11.20
C       6.54      13.20      10.28
C       6.73      11.85      10.71
C       7.06      11.51      12.04
C       7.24      12.59      12.96
C       7.07      13.93      12.52
C       7.61      12.38      14.39
C       6.20      13.36       8.84
C       6.47      15.67      10.90
C       7.10      10.14      12.47
C      -1.90      25.05      36.64
C      -0.88      25.45      35.72
C      15.29       0.15      36.16
C      14.39       0.22       0.24
C      -1.78      25.54      37.97
C      14.39       0.65       1.67
C      -0.84      25.08      34.28
C       8.13       4.11      11.72
C       7.74       3.53      10.47
C       8.34       2.36       9.92
C       9.40       1.74      10.65
C       9.91       2.35      11.84
C       9.25       3.50      12.39
C       7.43       5.27      12.24
C       7.43       6.56      11.58
C       6.80       7.70      12.20
C       5.97       7.49      13.35
C       6.03       6.27      14.07
C       6.78       5.20      13.51
C      -7.65      20.38      37.21
C      -8.31      20.43      35.94
C      -9.05      19.34      35.40
C      -9.08      18.13      36.13
C      -8.23      17.95      37.27
C      -7.61      19.10      37.87
C      -6.97      21.56      37.72
C      -5.86      22.19      37.04
C      -5.23      23.36      37.60
C      -5.76      23.97       0.60
C      -6.79      23.31       1.34
C      -7.36      22.12       0.81
C      -0.00       9.57      24.49
C       0.29       8.97      23.22
C       1.60       8.88      22.67
C       2.67       9.46      23.41
C       2.40      10.28      24.55
C       1.09      10.24      25.15
C      -1.36       9.57      24.99
C      -2.46      10.22      24.32
C      -3.79      10.18      24.88
C      -4.05       9.41      26.05
C      -2.97       8.85      26.79
C      -1.65       8.95      26.25
C      21.86      13.79       0.61
C      -8.00      14.14      37.44
C      22.31      13.06      36.52
C      -7.52      13.27      35.08
C      -7.93      15.50      37.03
C       4.36      11.77      24.30
C      -2.98      24.16      36.34
C      -6.92      12.21      23.92
C      22.41      12.90      23.00
C      22.78      12.08      25.24
C      -7.47      13.11      21.56
C      -5.60      11.73      23.62
C       4.25       6.20      17.34
C       4.72       6.48      18.66
C       3.82       6.94      19.66
C       2.44       7.17      19.42
C       1.98       6.93      18.09
C       2.88       6.44      17.09
C       0.57       7.16      17.65
C       6.15       6.33      19.06
C       5.06       5.62      16.33
C       1.58       7.54      20.50
C     -10.94      19.47      32.15
C     -10.92      19.99      30.81
C      18.39      19.45      29.82
C     -10.03      21.09      30.37
C     -10.19      20.03      33.22
C      -7.73      24.82       4.63
C      -7.34      24.54       5.97
C      -7.40      25.56       6.96
C       7.28       0.75       6.69
C       6.92       1.04       5.34
C       6.96       0.01       4.35
C       6.49       2.38       4.87
C      -6.84      23.21       6.41
C      -7.82      23.83       3.62
C       7.17       1.70       7.76
C      -3.81       7.28      30.07
C      -3.76       7.76      31.41
C      25.57       7.20      32.40
C      -2.85       8.86      31.85
C      -2.90       7.70      29.06
N      23.51       8.55      35.68
N      20.49       6.67       0.79
N      21.83       8.93      37.77
N      23.39       6.28      34.20
N      19.04      16.59      26.42
N      16.02      14.74      23.16
N      16.97      17.40      27.97
N      18.50      14.58      24.46
N      19.09       0.39       0.97
N      19.00       3.92      35.89
N      20.83       1.77       2.52
N      17.62       1.85      37.18
N       9.76      16.33      22.96
N      12.90      14.66      26.23
N      10.27      14.69      25.05
N      11.79      17.36      21.48
N       3.94      25.25      10.39
N       8.53      17.17      13.74
N       3.89      21.65      13.56
N       5.45      18.97      10.48
N       8.31      19.41      15.24
N       6.81      16.72      11.69
N       2.49      23.74      12.30
N       5.68      23.92       8.78
N       9.89       0.53      10.23
N       5.04       8.44      13.70
N       9.78       4.08      13.51
N       8.15       6.75      10.44
N       5.36       6.24      15.24
N       7.04       8.98      11.74
N      11.07       1.79      12.32
N       7.99       1.77       8.75
N      20.17      17.17      35.83
N      -5.31      25.19       1.01
N      -6.87      18.92       0.83
N      -5.33      21.62      35.92
N      -7.14      23.88       2.52
N      -4.06      23.92      37.14
N      -7.98      16.67      37.75
N      -9.73      19.35      34.22
N       3.96       9.13      23.10
N      24.85       9.19      26.46
N       0.87      10.97      26.28
N      -2.23      10.96      23.20
N      -3.29       8.26      27.97
N      -4.86      10.91      24.42
N       3.38      11.14      25.03
N       1.93       8.29      21.50
