72

H       1.12       0.79      12.48
H       0.17      -1.35      13.83
H       7.57       4.02      14.34
H       5.38       3.90      12.80
H      10.18       1.42      16.10
H      12.09       3.01      16.17
H       9.62       6.18      17.15
H       7.58       4.73      17.06
H       4.58       1.52      11.12
H       3.86       2.76       9.07
H       1.01       4.88      11.18
H       1.62       3.74      13.33
H       8.23      -0.77      20.10
H       9.17       1.37      18.75
H       1.77      -4.00      18.24
H       3.96      -3.88      19.78
H      -0.83      -1.40      16.48
H      -2.74      -3.00      16.42
H      -0.27      -6.16      15.44
H       1.76      -4.71      15.53
H       4.76      -1.50      21.45
H       5.48      -2.74      23.51
H       8.33      -4.86      21.40
H       7.72      -3.72      19.25
C       6.63      -0.76      18.51
C       1.51       0.35      13.38
C       1.03      -0.73      14.07
C       1.92      -0.96      15.19
C       1.82      -2.03      16.10
C       2.78      -2.33      17.10
C       6.72       3.36      14.46
C       5.61       3.29      13.66
C       4.77       2.23      14.19
C       5.79      -1.80      18.95
C       8.71       2.94      16.57
C      10.01       2.47      16.34
C      11.08       3.37      16.38
C       9.70       5.12      16.90
C       8.57       4.31      16.86
C       6.20      -2.51      20.19
C       5.56      -2.24      21.41
C       5.95      -2.93      22.55
C       1.79       4.12      11.21
C       2.12       3.49      12.40
C       2.71       0.78      14.08
C       7.83      -0.32      19.20
C       8.31       0.76      18.51
C       7.42       0.98      17.39
C       7.52       2.05      16.48
C       6.56       2.35      15.49
C       2.62      -3.33      18.13
C       3.73      -3.26      18.93
C       4.57      -2.20      18.39
C       3.55       1.82      13.63
C       0.64      -2.92      16.02
C      -0.66      -2.45      16.25
C      -1.73      -3.35      16.21
C      -0.36      -5.10      15.69
C       0.78      -4.29      15.73
C       3.14       2.53      12.39
C       3.78       2.26      11.17
C       3.38       2.94      10.03
C       7.55      -4.11      21.37
C       7.22      -3.47      20.18
N       6.42       0.03      17.40
N       3.98      -1.66      17.27
N      10.95       4.68      16.66
N       6.94      -3.84      22.54
N       2.93      -0.01      15.18
N       5.36       1.68      15.31
N      -1.60      -4.66      15.94
N       2.39       3.86      10.04
