356

Zn      13.70      10.74       1.57
Zn      16.30      24.71      12.41
Zn      13.70      10.74      26.40
Zn      16.30      24.71      15.56
Zn      16.04      12.28       0.00
Zn      16.06       9.15       0.00
Zn      13.96      26.25      13.99
Zn      13.92      23.14      13.99
Zn       6.29      17.21       1.57
Zn       3.68       3.23      12.41
Zn       6.29      17.21      26.40
Zn       3.68       3.23      15.56
Zn       3.94      15.66       0.00
Zn       3.93      18.80       0.00
Zn       6.02       1.69      13.99
Zn       6.07       4.81      13.99
H      12.73      13.87       4.18
H      12.61      15.74       5.85
H      16.26      17.38       4.24
H      16.35      15.52       2.57
H      16.33      20.45       7.27
H      16.51      22.11       9.14
H      13.09      20.35      11.04
H      12.88      18.70       9.17
H       7.06      10.63      25.82
H       9.57      10.54      25.83
H      17.24      27.85       9.81
H      17.38       1.76       8.14
H      13.73       3.41       9.75
H      13.64       1.55      11.42
H      13.66       6.48       6.72
H      13.47       8.13       4.86
H      16.89       6.38       2.94
H      17.11       4.73       4.81
H       2.92      24.60      16.14
H       0.42      24.51      16.13
H      12.73      13.87      23.79
H      12.61      15.74      22.12
H      16.26      17.38      23.74
H      16.35      15.52      25.40
H      16.33      20.45      20.70
H      16.51      22.11      18.84
H      13.09      20.35      16.93
H      12.88      18.70      18.80
H       7.06      10.63       2.16
H       9.57      10.54       2.15
H      17.24      27.85      18.17
H      17.38       1.76      19.84
H      13.73       3.41      18.22
H      13.64       1.55      16.56
H      13.66       6.48      21.25
H      13.47       8.13      23.12
H      16.89       6.38      25.03
H      17.11       4.73      23.16
H       2.92      24.60      11.83
H       0.42      24.51      11.84
H       0.14       8.67       0.00
H       2.65       8.60       0.00
H       2.74      12.91       0.00
H       0.24      12.96       0.00
H       9.84      22.65      13.99
H       7.34      22.58      13.99
H       7.24      26.89      13.99
H       9.74      26.94      13.99
H       7.25      14.07       4.18
H       7.37      12.21       5.85
H       3.73      10.56       4.24
H       3.64      12.42       2.57
H       3.66       7.49       7.27
H       3.48       5.84       9.14
H       6.90       7.60      11.04
H       7.10       9.25       9.17
H      12.92      17.32      25.82
H      10.42      17.41      25.83
H       2.74       0.10       9.81
H       2.60      26.19       8.14
H       6.25      24.54       9.75
H       6.34      26.40      11.42
H       6.33      21.47       6.72
H       6.51      19.82       4.86
H       3.10      21.57       2.94
H       2.88      23.22       4.81
H      17.06       3.35      16.14
H      19.57       3.44      16.13
H       7.25      14.07      23.79
H       7.37      12.21      22.12
H       3.73      10.56      23.74
H       3.64      12.42      25.40
H       3.66       7.49      20.70
H       3.48       5.84      18.84
H       6.90       7.60      16.93
H       7.10       9.25      18.80
H      12.92      17.32       2.16
H      10.42      17.41       2.15
H       2.74       0.10      18.17
H       2.60      26.19      19.84
H       6.25      24.54      18.22
H       6.34      26.40      16.56
H       6.33      21.47      21.25
H       6.51      19.82      23.12
H       3.10      21.57      25.03
H       2.88      23.22      23.16
H      17.06       3.35      11.83
H      19.57       3.44      11.84
H      19.84      19.28       0.00
H      17.34      19.34       0.00
H      17.25      15.04       0.00
H      19.75      14.99       0.00
H      10.14       5.30      13.99
H      12.64       5.37      13.99
H      12.74       1.06      13.99
H      10.24       1.01      13.99
C      14.68      13.43       2.36
C      14.56      14.58       3.29
C      13.49      14.65       4.20
C      13.42      15.69       5.13
C      14.44      16.67       5.17
C      15.48      16.62       4.22
C      15.54      15.58       3.29
C      14.44      17.68       6.17
C      14.50      18.52       7.05
C      14.59      19.47       8.10
C      15.62      20.44       8.09
C      15.72      21.36       9.13
C      14.81      21.33      10.20
C      13.79      20.36      10.21
C      13.67      19.45       9.17
C      14.93      22.31      11.32
C       7.62      10.60      26.75
C       9.01      10.55      26.76
C      15.31      27.40      11.62
C      15.44       0.61      10.69
C      16.50       0.68       9.78
C      16.57       1.71       8.86
C      15.55       2.70       8.82
C      14.51       2.64       9.77
C      14.45       1.61      10.69
C      15.55       3.70       7.82
C      15.49       4.54       6.94
C      15.39       5.49       5.89
C      14.36       6.46       5.90
C      14.26       7.38       4.86
C      15.17       7.35       3.79
C      16.19       6.39       3.78
C      16.31       5.47       4.82
C      15.05       8.31       2.66
C       2.37      24.58      15.21
C       0.98      24.53      15.20
C      14.68      13.43      25.61
C      14.56      14.58      24.68
C      13.49      14.65      23.77
C      13.42      15.69      22.84
C      14.44      16.67      22.81
C      15.48      16.62      23.76
C      15.54      15.58      24.68
C      14.44      17.68      21.81
C      14.50      18.52      20.92
C      14.59      19.47      19.88
C      15.62      20.44      19.88
C      15.72      21.36      18.84
C      14.81      21.33      17.77
C      13.79      20.36      17.76
C      13.67      19.45      18.80
C      14.93      22.31      16.65
C       7.62      10.60       1.22
C       9.01      10.55       1.22
C      15.31      27.40      16.35
C      15.44       0.61      17.28
C      16.50       0.68      18.19
C      16.57       1.71      19.12
C      15.55       2.70      19.15
C      14.51       2.64      18.20
C      14.45       1.61      17.28
C      15.55       3.70      20.15
C      15.49       4.54      21.04
C      15.39       5.49      22.08
C      14.36       6.46      22.07
C      14.26       7.38      23.11
C      15.17       7.35      24.18
C      16.19       6.39      24.19
C      16.31       5.47      23.15
C      15.05       8.31      25.31
C       2.37      24.58      12.77
C       0.98      24.53      12.77
C      18.55      10.83       0.00
C       0.04      10.81       0.00
C       0.72       9.58       0.00
C       2.11       9.55       0.00
C       2.85      10.75       0.00
C       2.16      11.99       0.00
C       0.77      12.01       0.00
C       4.27      10.72       0.00
C       5.49      10.68       0.00
C       6.90      10.63       0.00
C       9.71      10.53       0.00
C      11.20      10.52       0.00
C      11.43      24.81      13.99
C       9.94      24.79      13.99
C       9.26      23.56      13.99
C       7.87      23.53      13.99
C       7.13      24.73      13.99
C       7.82      25.97      13.99
C       9.21      25.99      13.99
C       5.72      24.70      13.99
C       4.50      24.65      13.99
C       3.08      24.60      13.99
C       0.28      24.51      13.99
C      18.79      24.49      13.99
C       5.31      14.52       2.36
C       5.43      13.37       3.29
C       6.49      13.30       4.20
C       6.56      12.26       5.13
C       5.55      11.27       5.17
C       4.50      11.33       4.22
C       4.45      12.36       3.29
C       5.54      10.27       6.17
C       5.49       9.43       7.05
C       5.39       8.48       8.10
C       4.36       7.51       8.09
C       4.26       6.59       9.13
C       5.17       6.62      10.20
C       6.20       7.58      10.21
C       6.31       8.50       9.17
C       5.05       5.64      11.32
C      12.37      17.35      26.75
C      10.98      17.39      26.76
C       4.68       0.55      11.62
C       4.55      27.34      10.69
C       3.48      27.27       9.78
C       3.42      26.24       8.86
C       4.43      25.25       8.82
C       5.48      25.30       9.77
C       5.53      26.34      10.69
C       4.43      24.25       7.82
C       4.49      23.41       6.94
C       4.59      22.46       5.89
C       5.62      21.48       5.90
C       5.72      20.56       4.86
C       4.82      20.60       3.79
C       3.79      21.56       3.78
C       3.67      22.47       4.82
C       4.94      19.63       2.66
C      17.62       3.37      15.21
C      19.00       3.42      15.20
C       5.31      14.52      25.61
C       5.43      13.37      24.68
C       6.49      13.30      23.77
C       6.56      12.26      22.84
C       5.55      11.27      22.81
C       4.50      11.33      23.76
C       4.45      12.36      24.68
C       5.54      10.27      21.81
C       5.49       9.43      20.92
C       5.39       8.48      19.88
C       4.36       7.51      19.88
C       4.26       6.59      18.84
C       5.17       6.62      17.77
C       6.20       7.58      17.76
C       6.31       8.50      18.80
C       5.05       5.64      16.65
C      12.37      17.35       1.22
C      10.98      17.39       1.22
C       4.68       0.55      16.35
C       4.55      27.34      17.28
C       3.48      27.27      18.19
C       3.42      26.24      19.12
C       4.43      25.25      19.15
C       5.48      25.30      18.20
C       5.53      26.34      17.28
C       4.43      24.25      20.15
C       4.49      23.41      21.04
C       4.59      22.46      22.08
C       5.62      21.48      22.07
C       5.72      20.56      23.11
C       4.82      20.60      24.18
C       3.79      21.56      24.19
C       3.67      22.47      23.15
C       4.94      19.63      25.31
C      17.62       3.37      12.77
C      19.00       3.42      12.77
C       1.43      17.12       0.00
C      19.94      17.13       0.00
C      19.26      18.36       0.00
C      17.87      18.40       0.00
C      17.13      17.19       0.00
C      17.82      15.96       0.00
C      19.21      15.94       0.00
C      15.72      17.23       0.00
C      14.50      17.27       0.00
C      13.08      17.32       0.00
C      10.27      17.42       0.00
C       8.78      17.43       0.00
C       8.55       3.14      13.99
C      10.04       3.15      13.99
C      10.72       4.38      13.99
C      12.11       4.42      13.99
C      12.85       3.22      13.99
C      12.17       1.98      13.99
C      10.78       1.96      13.99
C      14.27       3.25      13.99
C      15.49       3.29      13.99
C      16.90       3.35      13.99
C      19.71       3.44      13.99
C       1.20       3.45      13.99
O      13.80      12.50       2.46
O      15.67      13.44       1.55
O      15.81      23.23      11.19
O      14.14      22.14      12.31
O      11.78      10.52      26.83
O      16.19      26.47      11.52
O      14.33      27.42      12.45
O      14.20       9.26       2.79
O      15.81       8.11       1.65
O      18.21      24.49      15.13
O      13.80      12.50      25.51
O      15.67      13.44      26.42
O      15.81      23.23      16.78
O      14.14      22.14      15.66
O      11.78      10.52       1.14
O      16.19      26.47      16.45
O      14.33      27.42      15.53
O      14.20       9.26      25.18
O      15.81       8.11      26.32
O      18.21      24.49      12.85
O      14.87      10.71       0.00
O      17.97       9.69       0.00
O      17.98      11.97       0.00
O      15.13      24.69      13.99
O      12.02      23.67      13.99
O      12.02      25.95      13.99
O       6.19      15.44       2.46
O       4.31      14.51       1.55
O       4.17       4.72      11.19
O       5.85       5.81      12.31
O       8.20      17.43      26.83
O       3.80       1.47      11.52
O       5.66       0.53      12.45
O       5.79      18.69       2.79
O       4.17      19.84       1.65
O       1.78       3.46      15.13
O       6.19      15.44      25.51
O       4.31      14.51      26.42
O       4.17       4.72      16.78
O       5.85       5.81      15.66
O       8.20      17.43       1.14
O       3.80       1.47      16.45
O       5.66       0.53      15.53
O       5.79      18.69      25.18
O       4.17      19.84      26.32
O       1.78       3.46      12.85
O       5.11      17.23       0.00
O       2.02      18.25       0.00
O       2.01      15.97       0.00
O       4.85       3.26      13.99
O       7.96       4.27      13.99
O       7.97       2.00      13.99
