156

Mn       5.09       1.79       2.25
Mn       3.41      14.11       0.27
Mn      10.36       9.10       5.00
Mn      12.04       6.79       6.99
Mn      12.20      12.85      12.22
Mn      13.88       0.53      14.20
Mn       6.93       5.54       9.47
Mn       5.24       7.85       7.48
Mn       6.80       0.00       0.00
Mn       8.64       7.32       7.24
Mn       0.00       0.00       0.00
Mn       1.84       7.32       7.24
H       8.29       1.46      14.04
H      11.23       3.65       0.98
H      11.24       5.62       2.55
H       7.23       4.74       3.89
H      12.17       1.96       2.66
H      12.11       3.68       4.48
H       2.82       3.92       4.59
H       5.25       1.11      11.69
H      10.84       8.78       7.69
H       4.21      10.97       6.25
H       4.20      12.94       4.69
H       8.21      12.07       3.34
H       3.27       9.26       4.58
H       3.34      11.00       2.77
H      12.63      11.26       2.66
H      13.91       8.43      10.03
H       9.00      13.17       0.43
H       6.06      10.99      13.49
H       6.05       9.02      11.93
H      10.05       9.89      10.58
H       5.11      12.68      11.81
H       5.17      10.96       9.99
H      14.47      10.72       9.88
H      12.04      13.53       2.78
H       6.44       5.86       6.78
H      13.07       3.67       8.22
H      13.09       1.70       9.78
H       9.08       2.57      11.13
H      14.02       5.38       9.89
H      13.95       3.64      11.70
H       4.65       3.38      11.81
H       3.38       6.21       4.44
C       8.05       3.43       2.34
C       9.21       3.11       1.57
C      10.37       3.89       1.60
C      10.37       4.98       2.46
C       9.25       5.25       3.30
C       8.08       4.51       3.24
C       9.40       6.33       4.32
C       1.94       2.54       3.13
C       0.74       1.99       2.60
C      13.08       2.39       3.07
C      13.06       3.34       4.08
C      14.26       3.89       4.61
C       1.91       3.50       4.15
C      14.11       4.94       5.67
C       5.99       0.91      12.48
C       7.39      10.76       4.90
C       6.24      10.43       5.66
C       5.07      11.22       5.63
C       5.07      12.30       4.78
C       6.19      12.58       3.94
C       7.37      11.83       3.99
C       6.05      13.66       2.92
C      13.50       9.86       4.12
C      14.70       9.31       4.64
C       2.36       9.70       4.17
C       2.39      10.65       3.17
C       1.19      11.22       2.64
C      13.54      10.83       3.10
C       1.34      12.27       1.58
C      13.17       8.23       9.23
C       9.23      11.21      12.13
C       8.08      11.53      12.90
C       6.91      10.75      12.87
C       6.92       9.66      12.01
C       8.03       9.39      11.17
C       9.21      10.13      11.23
C       7.89       8.31      10.15
C      15.34      12.10      11.34
C      16.54      12.64      11.87
C       4.20      12.25      11.40
C       4.23      11.30      10.39
C       3.03      10.75       9.86
C      15.37      11.14      10.32
C       3.18       9.70       8.80
C      11.30      13.73       1.99
C       9.90       3.88       9.57
C      11.05       4.21       8.81
C      12.22       3.42       8.84
C      12.21       2.34       9.69
C      11.10       2.06      10.53
C       9.92       2.81      10.48
C      11.24       0.98      11.55
C       3.79       4.78      10.35
C       2.59       5.33       9.83
C      14.93       4.94      10.30
C      14.90       3.99      11.30
C      16.09       3.42      11.83
C       3.75       3.81      11.37
C      15.94       2.37      12.89
C       4.12       6.41       5.24
N       8.93       1.96       0.88
N       7.68       1.62       1.18
N       7.10       2.48       2.04
N       2.98       1.94       2.45
N       2.42       1.07       1.58
N       1.10       1.09       1.64
N       6.52       9.29       6.36
N       7.77       8.95       6.06
N       8.35       9.81       5.20
N      12.46       9.26       4.80
N      13.02       8.38       5.66
N      14.35       8.39       5.59
N       8.36      12.68      13.59
N       9.61      13.02      13.29
N      10.19      12.16      12.43
N      14.30      12.70      12.02
N      14.86      13.57      12.89
N      16.19      13.55      12.83
N      10.77       5.35       8.11
N       9.52       5.69       8.41
N       8.94       4.83       9.27
N       4.83       5.38       9.67
N       4.27       6.26       8.81
N       2.94       6.25       8.88
O       4.92       0.95       0.35
O       5.65      14.59      13.31
O       7.04       1.56      12.54
O      12.90       5.29       5.94
O      15.14       5.42       6.24
O       8.82       6.17       5.43
O      10.14       7.34       4.01
O      10.53       8.27       6.90
O      13.51       7.27       8.40
O      12.11       8.88       9.17
O       2.55      12.61       1.31
O       0.31      12.75       1.02
O       6.63      13.49       1.81
O       5.30       0.02       3.23
O      12.37      13.69      14.12
O      11.64       0.05       1.16
O      10.24      13.08       1.93
O       4.38       9.35       8.53
O       2.14       9.22       8.24
O       8.47       8.47       9.04
O       7.14       7.30      10.46
O       6.76       6.37       7.57
O       3.78       7.37       6.07
O       5.18       5.76       5.30
O      14.74       2.03      13.16
O      16.98       1.89      13.45
O      10.66       1.15      12.66
O      11.99      14.62      11.24
