19

Zn       1.31      18.23      29.78
O       0.61      18.23      31.63
Zn       1.24      18.41      33.48
C      -0.67      18.98      35.78
C       1.11      17.64      36.44
O       1.92      16.54      33.91
O       2.09      20.16      33.99
H      -0.14      17.61      31.77
C       2.90      15.98      33.29
C       1.26      21.13      33.74
C       0.76      18.16      27.12
N       2.01      16.29      29.69
N       2.16      20.08      29.70
N       0.44      18.30      35.45
C       1.36      15.34      30.41
C       3.14      15.96      29.05
O       0.12      18.55      28.19
C       1.57      21.11      29.04
C       3.29      20.31      30.38
