33

C      13.78       2.79      15.37
C      12.41       3.57      17.71
H      12.59       0.98      15.51
H      14.75       4.72      12.70
C      13.78       2.79      12.84
C      12.41       3.57      10.51
H      12.59       0.98      12.70
C      14.51       2.36      14.11
H      14.75       4.72      15.51
O      10.69       1.76      18.89
O      10.70       0.45      17.02
H      11.89       3.87      18.61
H      11.89       3.87       9.60
H      15.52       2.80      14.11
O      13.12       5.97       9.32
O      14.26       6.62      11.19
H      14.63       1.27      14.11
C      12.13       2.34      17.11
C      12.82       1.95      15.95
C      11.10       1.45      17.72
O      10.69       1.76       9.32
O      10.70       0.45      11.19
O      13.12       5.97      18.89
O      14.26       6.62      17.02
C      13.34       4.43      11.10
C      14.02       4.04      12.26
C      13.60       5.77      10.50
C      12.13       2.34      11.10
C      12.82       1.95      12.26
C      11.10       1.45      10.50
C      13.34       4.43      17.11
C      14.02       4.04      15.95
C      13.60       5.77      17.72
