33

C       9.30      10.54      15.37
C       9.30       8.97      17.70
H      11.46      10.42      15.51
H       7.14      10.41      12.70
C       9.30      10.54      12.85
C       9.30       8.97      10.51
H      11.46      10.42      12.70
C       9.30      11.39      14.11
H       7.14      10.41      15.51
O      11.74       8.38      18.88
O      12.86       9.04      17.01
H       9.30       8.37      18.61
H       9.30       8.37       9.60
H       8.42      12.04      14.11
O       6.88       8.38       9.33
O       5.74       9.05      11.18
H      10.18      12.04      14.11
C      10.51       9.34      17.11
C      10.51      10.13      15.95
C      11.80       8.89      17.71
O      11.74       8.38       9.33
O      12.86       9.04      11.20
O       6.88       8.38      18.89
O       5.74       9.05      17.03
C       8.09       9.35      11.10
C       8.10      10.13      12.27
C       6.81       8.90      10.50
C      10.51       9.34      11.11
C      10.51      10.13      12.27
C      11.80       8.89      10.50
C       8.09       9.35      17.11
C       8.10      10.13      15.95
C       6.81       8.90      17.72
