24

H       6.37       2.49       7.84
H       2.62       3.98       6.28
H       1.49       2.93       8.04
C       4.11       1.15       9.29
C       1.36       1.44       9.58
H       1.49      -0.09      11.07
H       6.37      -0.29      10.63
H       2.62      -1.86      12.12
N       5.84       3.78       6.26
N       4.64       4.25       5.76
N       5.84      -1.88      11.92
N       4.64      -2.38      12.39
H       5.18       1.02       9.15
H       0.29       1.55       9.69
C       5.56       2.96       7.30
C       4.17       2.89       7.51
C       3.64       3.73       6.51
C       3.44       2.09       8.49
C       2.05       2.22       8.65
C       5.56      -0.84      11.10
C       4.17      -0.63      11.03
C       3.64      -1.63      11.87
C       3.44       0.36      10.23
C       2.05       0.51      10.36
