11

O       2.27       6.43       4.04
O       2.20       7.85       6.11
P       3.07       7.46       4.82
O       4.15       9.12       2.91
O       4.47       6.97       5.24
O       0.74       9.07       3.84
O       1.78      10.00       2.13
H       5.11       9.19       3.26
H       3.30       9.86       4.66
C       3.18       9.07       3.88
C       1.83       9.39       3.22
