10

P       2.07       5.59      12.62
O       0.61       5.83      13.00
O       2.96       6.88      12.55
O       2.72       4.50      13.48
O       1.13       4.19      10.45
O       4.58       4.99      10.81
H       2.25       5.93      10.23
O       3.54       3.04      10.43
C       2.20       5.02      10.85
C       3.52       4.27      10.68
