116

Ce      12.71      12.02       7.51
Ce       5.99       8.13      14.32
Ce       9.46       0.83       7.04
Ce      16.18       4.72       0.23
H      14.00       8.48       8.23
H      17.59       9.61      10.33
H      15.61       5.93      11.31
H      12.08       7.32       8.89
H      15.13       4.40       9.74
H      10.61       5.50       8.03
H      13.66       2.60       8.87
H       8.41       5.25      13.60
H       5.65       2.69      11.49
H       9.83       2.58      10.51
H      10.39       6.34      12.93
H      11.39       2.22      12.09
H      12.69       6.70      13.79
H      13.69       2.61      12.97
H       8.17       4.36       6.32
H       4.58       3.23       4.22
H       6.56       6.92       3.24
H      10.09       5.53       5.65
H       7.03       8.45       4.81
H      11.55       7.34       6.51
H       8.51      10.25       5.67
H      13.75       7.60       0.95
H      16.51      10.15       3.05
H      12.33      10.26       4.03
H      11.77       6.51       1.62
H      10.77      10.62       2.45
H       9.47       6.14       0.75
H       8.48      10.24       1.58
C      15.90      10.40       8.39
C      15.79       9.17       9.22
C      14.74       8.26       8.99
C      16.77       8.91      10.18
C      14.69       7.05       9.71
C      16.68       7.75      10.95
C      13.72       5.99       9.35
C      15.65       6.83      10.70
C      17.65       7.44      12.04
C      12.43       6.29       8.89
C      14.14       4.64       9.38
C      11.60       5.27       8.41
C      13.32       3.63       8.89
C      12.06       3.94       8.36
C      11.24       2.90       7.69
C       5.81       4.56      13.43
C       6.93       4.04      12.60
C       8.24       4.50      12.83
C       6.66       3.05      11.64
C       9.31       3.94      12.11
C       7.72       2.56      10.87
C      10.72       4.24      12.47
C       9.03       2.99      11.12
C       7.50       1.56       9.78
C      11.11       5.52      12.93
C      11.68       3.21      12.45
C      12.39       5.72      13.42
C      12.96       3.42      12.94
C      13.32       4.67      13.47
C      14.63       4.86      14.13
C       6.26       2.44       6.15
C       6.38       3.67       5.33
C       7.42       4.58       5.55
C       5.39       3.93       4.37
C       7.47       5.79       4.84
C       5.49       5.10       3.59
C       8.44       6.86       5.20
C       6.52       6.02       3.84
C       4.52       5.40       2.50
C       9.74       6.56       5.65
C       8.03       8.20       5.16
C      10.56       7.57       6.14
C       8.85       9.21       5.66
C      10.11       8.90       6.19
C      10.92       9.94       6.85
C      16.36       8.29       1.12
C      15.24       8.80       1.94
C      13.93       8.35       1.72
C      15.50       9.79       2.91
C      12.85       8.91       2.43
C      14.44      10.29       3.68
C      11.45       8.60       2.07
C      13.13       9.85       3.43
C      14.66      11.28       4.77
C      11.06       7.33       1.62
C      10.49       9.63       2.10
C       9.77       7.12       1.13
C       9.20       9.43       1.61
C       8.85       8.17       1.08
C       7.53       7.99       0.41
O      10.55      11.18       6.80
O      12.00       9.62       7.48
O       7.33       1.93       6.67
O       5.12       1.91       6.33
O       6.33       1.14       9.51
O      13.60      11.66       5.39
O       6.65       8.93       0.47
O       8.41       7.56      14.34
O      16.27       7.11       0.60
O      17.39       9.01       0.94
O      18.60       8.24      12.31
O       4.71       6.51       1.88
O      11.62       1.66       7.74
O      10.17       3.22       7.07
O      14.83      10.92       7.87
O      17.04      10.93       8.21
O      15.83      11.71       5.04
O       8.56       1.19       9.16
O      15.52       3.92      14.08
O      13.75       5.28       0.21
O       5.89       5.74      13.95
O       4.77       3.84      13.60
O       3.56       4.60       2.23
O      17.45       6.34      12.67
