34

Cu       2.74       4.85       5.58
Cu       0.11       9.80       6.04
Cu      -2.02       4.86       7.37
Cu       4.90       9.80       6.89
P       4.64       6.66       7.08
P      -3.53       2.69       5.96
P      -0.13       6.66       5.84
P       1.23       2.70       6.99
H       3.79       3.85       7.65
H      -0.98       3.84       5.29
C      -1.20       3.72      10.03
C       3.46       5.80       8.22
C      -2.99       3.97       4.78
C      -2.44       5.67      10.17
C       3.57       3.68       2.93
C      -1.31       5.80       4.72
C       1.77       3.99       8.17
C       2.33       5.64       2.76
N       3.02       4.54       7.61
N      -1.86       4.72       9.42
N      -1.74       4.53       5.34
N       2.91       4.70       3.53
O       6.09       6.43       7.47
O      -0.50       6.15       7.26
O      -0.53       8.15       5.56
O       3.57      10.42       5.68
O       1.17      11.32       5.62
O      -3.37       3.32       7.35
O       1.32       6.44       5.45
O       4.27       6.12       5.68
O       4.23       8.14       7.35
O       2.14       1.48       7.25
O      -0.25       2.38       7.33
O       1.37       3.35       5.60
