304

C       4.12       6.85      14.57
C       4.99       6.95      15.65
C       6.34       7.01      15.43
C      -2.96       7.01      14.10
C       5.83       6.91      13.11
C      -2.42       7.06      16.54
C      -2.76       6.54      17.79
C      -1.90       6.61      18.88
C      -0.63       7.18      18.72
C      -0.27       7.68      17.47
C      -1.15       7.62      16.40
C      -2.28       5.93      20.17
C       6.48       3.55      14.01
C      -2.36       3.57      15.05
C      -1.01       3.59      14.84
C      -0.60       3.56      13.52
C      -1.54       3.56      12.51
C      -0.01       3.69      15.96
C      -0.38       3.60      17.29
C       0.51       3.75      18.31
C       1.85       3.97      18.02
C       2.25       4.04      16.71
C       1.35       3.90      15.68
C       0.07       3.69      19.74
C       6.73      14.56       6.86
C       7.58      14.31       5.81
C      -0.80      14.16       6.04
C      -0.39      14.24       7.37
C      -1.31      14.51       8.36
C       0.14      13.89       4.95
C      -0.26      13.18       3.82
C       0.60      12.92       2.78
C       1.90      13.37       2.86
C       2.32      14.09       3.96
C       1.46      14.33       5.01
C       0.14      12.09       1.63
C      -0.75      17.97       7.56
C       0.13      17.87       6.49
C       1.47      17.81       6.71
C       1.90      17.81       8.04
C       0.97      17.92       9.03
C       2.45      17.77       5.60
C       2.11      18.28       4.35
C       2.97      18.22       3.25
C       4.24      17.64       3.42
C       4.60      17.14       4.67
C       3.71      17.20       5.73
C       2.58      18.89       1.96
C       1.61       0.55       8.13
C       2.51       0.53       7.09
C       3.85       0.52       7.30
C       4.26       0.54       8.62
C       3.33       0.55       9.62
C       4.86       0.41       6.18
C       4.48       0.50       4.85
C       5.38       0.35       3.83
C       6.72       0.13       4.12
C       7.12       0.07       5.43
C       6.21       0.21       6.46
C       4.94       0.41       2.40
C       1.86      10.26      15.28
C       2.72      10.51      16.33
C       4.06      10.66      16.09
C       4.47      10.58      14.77
C       3.56      10.31      13.78
C       5.00      10.94      17.19
C       4.60      11.64      18.32
C       5.47      11.90      19.36
C      -2.96      11.45      19.28
C      -2.54      10.73      18.18
C      -3.40      10.50      17.13
C       5.00      12.73      20.51
C       0.75       7.61       7.56
C      -0.13       7.51       6.49
C      -1.47       7.45       6.71
C       7.83       7.45       8.04
C      -0.97       7.56       9.03
C       7.28       7.41       5.60
C       7.63       7.92       4.35
C       6.77       7.86       3.25
C       5.50       7.29       3.42
C       5.13       6.78       4.67
C       6.02       6.84       5.73
C       7.15       8.54       1.96
C      -1.61      10.91       8.13
C       7.23      10.89       7.09
C       5.88      10.88       7.30
C       5.47      10.90       8.62
C       6.40      10.91       9.62
C       4.87      10.77       6.18
C       5.25      10.86       4.85
C       4.36      10.71       3.83
C       3.01      10.49       4.12
C       2.62      10.43       5.43
C       3.52      10.57       6.46
C       4.79      10.77       2.40
C      -1.86      -0.10      15.28
C      -2.72       0.15      16.33
C       5.67       0.30      16.09
C       5.26       0.22      14.77
C       6.18      -0.04      13.78
C       4.73       0.58      17.19
C       5.13       1.28      18.32
C       4.26       1.55      19.36
C       2.96       1.09      19.28
C       2.54       0.38      18.18
C       3.40       0.14      17.13
C       4.73       2.37      20.51
C       5.62      -3.51      14.57
C       4.74      -3.41      15.65
C       3.39      -3.35      15.43
C       2.96      -3.34      14.10
C       3.90      -3.45      13.11
C       2.42      -3.30      16.54
C       2.76      -3.82      17.79
C       1.90      -3.75      18.88
C       0.63      -3.18      18.72
C       0.27      -2.68      17.47
C       1.15      -2.74      16.40
C       2.28      -4.43      20.17
C       3.25      13.91      14.01
C       2.36      13.93      15.05
C       1.01      13.94      14.84
C       0.60      13.92      13.52
C       1.54      13.91      12.51
C       0.01      14.05      15.96
C       0.38      13.96      17.29
C      -0.51      14.11      18.31
C      -1.85      14.33      18.02
C      -2.25      14.40      16.71
C      -1.35      14.25      15.68
C      -0.07      14.05      19.74
C       3.01       4.21       6.86
C       2.15       3.96       5.81
C       0.80       3.80       6.04
C       0.39       3.88       7.37
C       1.31       4.15       8.36
C      -0.14       3.53       4.95
C       0.26       2.83       3.82
C      -0.60       2.56       2.78
C       7.83       3.01       2.86
C       7.41       3.73       3.96
C       8.27       3.97       5.01
C      -0.14       1.73       1.63
Cu       3.96       4.81       9.58
Cu       3.22       6.35      11.79
Cu       5.61       3.70      11.20
Cu      -0.91      -0.70      12.56
Cu      -1.64      -2.24      10.35
Cu       0.75       0.40      10.94
Cu       0.91       9.65      12.56
Cu       1.64       8.12      10.35
Cu      -0.75      10.76      10.94
Cu       5.77      15.17       9.58
Cu       6.51      16.70      11.79
Cu       4.12      14.06      11.20
Gd      -2.42       3.80      21.99
Gd       2.45       0.30       0.15
Gd       7.28      10.66       0.15
Gd       2.42      14.16      21.99
H       3.21       6.79      14.76
H       4.66       6.98      16.52
H      -2.06       7.09      13.90
H       6.14       6.89      12.23
H      -3.59       6.14      17.90
H      -0.04       7.22      19.43
H       0.57       8.06      17.35
H      -0.90       7.97      15.58
H       5.57       3.54      14.20
H      -2.68       3.58      15.92
H       0.30       3.55      13.31
H      -1.23       3.56      11.64
H      -1.27       3.44      17.50
H       2.47       4.07      18.70
H       3.15       4.18      16.52
H       1.64       3.94      14.80
H       5.83      14.68       6.67
H       7.25      14.25       4.95
H       0.50      14.11       7.59
H      -1.00      14.59       9.24
H       8.59      12.89       3.76
H       2.50      13.19       2.17
H       3.19      14.42       3.99
H       1.77      14.78       5.76
H       8.07      18.03       7.38
H      -0.21      17.84       5.62
H       2.81      17.74       8.24
H       1.28      -2.78       9.91
H       1.27      18.68       4.24
H       4.83      17.60       2.71
H       5.44      16.77       4.79
H       3.97      16.86       6.56
H       0.70       0.56       7.93
H       2.18       0.53       6.22
H       5.17       0.56       8.83
H       3.63       0.55      10.50
H       3.59       0.67       4.64
H       7.34       0.03       3.44
H       8.01      -0.08       5.62
H       6.50       0.17       7.34
H       0.96      10.15      15.47
H       2.38      10.57      17.19
H       5.37      10.71      14.55
H       3.87      10.24      12.90
H       3.72      11.93      18.38
H      -2.37      11.63      19.97
H      -1.68      10.41      18.15
H      -3.10      10.04      16.37
H       1.66       7.67       7.38
H       0.21       7.48       5.62
H       6.92       7.38       8.24
H      -1.28       7.57       9.91
H       8.46       8.33       4.24
H       4.90       7.24       2.71
H       4.29       6.41       4.79
H       5.76       6.50       6.56
H      -0.70      10.92       7.93
H       7.55      10.89       6.22
H       4.56      10.91       8.83
H       6.10      10.91      10.50
H       6.14      11.03       4.64
H       2.39      10.39       3.44
H       1.72      10.28       5.62
H       3.23      10.53       7.34
H      -0.96      -0.21      15.47
H      -2.38       0.22      17.19
H       4.36       0.35      14.55
H       5.87      -0.12      12.90
H      -3.72       1.58      18.38
H       2.37       1.27      19.97
H       1.68       0.05      18.15
H       3.10      -0.32      16.37
H      -3.21      -3.57      14.76
H       5.07      -3.38      16.52
H       2.06      -3.27      13.90
H       3.59      17.25      12.23
H       3.59      -4.22      17.90
H       0.04      -3.14      19.43
H      -0.57      -2.30      17.35
H       0.90      -2.39      15.58
H       4.16      13.90      14.20
H       2.68      13.93      15.92
H      -0.30      13.91      13.31
H       1.23      13.91      11.64
H       1.27      13.79      17.50
H      -2.47      14.43      18.70
H      -3.15      14.54      16.52
H      -1.64      14.30      14.80
H       3.91       4.32       6.67
H       2.48       3.89       4.95
H      -0.50       3.76       7.59
H       1.00       4.23       9.24
H       1.14       2.53       3.76
H       7.23       2.84       2.17
H       6.54       4.06       3.99
H       7.97       4.42       5.76
I       4.10       7.47       9.59
I       3.13       3.64      11.85
I       6.37       3.96       8.81
I      -0.76      -3.36      12.55
I      -1.73       0.46      10.29
I       1.50       0.15      13.33
I       0.76       6.99      12.55
I       1.73      10.82      10.29
I      -1.50      10.50      13.33
I       5.63      17.83       9.59
I       6.60      14.00      11.85
I       3.37      14.32       8.81
N       4.51       6.82      13.29
N       6.87       3.55      12.72
N       7.10      14.66       8.14
N      -0.36      18.00       8.85
N       2.00       0.56       9.42
N       2.24      10.16      14.00
N       0.36       7.64       8.85
N      -2.00      10.91       9.42
N      -2.24      -0.20      14.00
N       5.23      -3.54      13.29
N       2.86      13.91      12.72
N       2.63       4.30       8.14
O      -3.36       5.27      20.21
O      -1.50       5.98      21.18
O      -1.14       3.41      19.97
O       0.89       3.95      20.66
O       0.97      11.44       0.95
O       8.64      12.09       1.40
O       1.51      19.55       1.93
O       3.36      18.84       0.96
O       3.73       0.70       2.17
O       5.76       0.16       1.48
O      -3.90      13.38      21.19
O       3.77      12.73      20.74
O       8.22       9.20       1.93
O       6.37       8.48       0.96
O       6.00      11.06       2.17
O       3.97      10.51       1.48
O       3.90       3.03      21.19
O      -3.77       2.37      20.74
O       3.36      -5.09      20.21
O       1.50      -4.38      21.18
O       1.14      13.77      19.97
O      -0.89      14.31      20.66
O       8.76       1.08       0.95
O       1.10       1.73       1.40
