25

C      10.88      19.15       5.12
C      13.05      18.37       4.84
Ni      11.75      18.87       2.26
O       7.71      17.69       1.91
Ni       9.39      17.41       0.79
O       9.20      19.48       0.52
O      10.22      20.29       2.39
C      12.88      21.63       3.03
C      14.21      20.39       1.61
O      10.57      17.52       2.13
C      13.52      16.49       1.73
C       8.28      16.64      -1.97
C       6.94      18.05      -0.73
C      11.86      18.13      -0.59
C      10.25      14.56       0.52
C       8.08      14.84       1.31
C       7.63      17.94       3.19
C       9.29      20.25       1.53
N      11.88      18.75       4.30
N      13.10      20.49       2.35
N       8.06      17.32      -0.83
N       9.26      15.38       0.92
O      13.44      17.76       1.99
O      11.95      19.13       0.18
O      10.90      17.29      -0.65
