25

Ni      11.73       2.25      10.62
C      12.83       3.02       7.87
C      14.17       1.60       9.10
Ni       9.39       0.80      12.10
C      10.85       5.10      10.34
C      13.02       4.83      11.12
O       7.69       1.91      11.85
O      10.20       2.39       9.20
O       9.17       0.52      10.01
C      13.49       1.75      13.01
C      11.84      -0.59      11.40
C      10.25       0.53      14.97
O      10.57       2.16      11.99
C       8.07       1.29      14.67
C       8.27      -1.97      12.88
C       6.93      -0.74      11.46
N      13.06       2.33       9.01
N      11.85       4.29      10.73
C       7.60       3.17      11.57
C       9.26       1.53       9.24
N       9.25       0.92      14.14
N       8.05      -0.83      12.19
O      13.41       1.98      11.73
O      11.92       0.18      10.39
O      10.91      -0.62      12.27
