25

C       2.21       0.57       8.28
Ni       2.34      -2.27       9.05
Ni       4.69      -0.78       7.58
O       0.65      -2.00       7.95
O       2.13      -0.19       9.29
O       3.15       0.61       7.42
C       1.22      -3.05      11.81
C      -0.12      -1.62      10.59
C       3.20      -5.14       9.32
C       1.03      -4.85       8.55
O       4.88      -0.54       9.67
O       3.86      -2.41      10.48
O       6.37      -1.89       7.84
O       3.52      -2.14       7.69
C       6.44      -3.16       8.09
C       4.80      -1.54      10.44
C       3.81      -0.53       4.72
C       5.99      -1.29       5.01
N       0.99      -2.36      10.68
N       2.20      -4.31       8.93
N       4.81      -0.91       5.54
N       6.01       0.83       7.50
C       5.79       1.97       6.81
C       7.13       0.73       8.23
C       0.56      -1.74       6.68
