25

Ni       2.29       0.75      17.41
Ni       4.65       2.23      18.86
C       0.53       3.12      17.92
C       2.20       1.51      20.26
O       0.59       1.84      17.69
O       2.12       0.50      19.49
O       3.14       2.37      20.29
C       3.18       0.49      14.57
C       1.01       1.27      14.85
O       6.35       1.96      17.76
O       4.86       0.16      19.14
O       3.82      -0.68      17.30
C       6.44       1.71      16.49
C       4.77      -0.62      18.15
O       3.47       2.10      17.51
C       1.19      -2.01      16.65
C      -0.14      -0.77      18.08
N       2.17       0.87      15.38
C       5.79       3.01      21.63
N       0.97      -0.87      17.34
C       7.12       1.59      20.40
N       6.01       2.33      20.49
N       4.78       4.27      18.74
C       3.79       5.09      19.14
C       5.96       4.81      18.36
