25

Ni      11.73       7.56      18.87
Ni       9.35       9.02      17.41
O       7.64       7.92      17.65
O       9.17       9.26      19.48
O      10.19       7.39      20.29
C      13.52       8.10      16.53
C      11.82      10.41      18.14
C      10.85       4.71      19.15
C      13.02       4.98      18.37
C      10.23       9.30      14.56
C       8.06       8.53      14.84
O      10.55       7.67      17.51
C       8.25      11.78      16.65
C       6.91      10.55      18.08
C       7.57       6.65      17.93
C       9.25       8.25      20.26
N      13.06       7.47      20.51
N      11.85       5.52      18.75
N       9.23       8.92      15.37
N       8.02      10.64      17.33
O      13.45       7.81      17.80
O      11.92       9.64      19.14
O      10.87      10.45      17.29
C      12.83       6.79      21.65
C      14.18       8.20      20.42
