91

Zn       4.08       3.15      19.47
Zn       6.51      18.64       1.27
Zn       1.68       4.23      18.23
H       6.03      18.96       5.60
H       5.17      19.63       7.86
H       5.09       1.92       6.05
H       1.05       1.24       3.79
H       1.38       3.72      10.80
H       2.73       4.36       8.89
H       3.81       2.95       8.83
H       2.80       3.35       7.42
H       2.17      14.34       1.66
H       3.02      12.00       1.35
H       3.10      16.60      18.57
H       7.15      18.94      18.90
H       6.81      11.63      17.54
H       5.46      13.41      16.61
H       4.38      13.70      17.99
H       5.39      15.02      17.38
H       2.16       3.91      13.90
H       3.02       3.24      11.64
H       3.10      20.95      13.45
H       7.14      21.63      15.71
H       6.81      19.15       8.71
H       5.46      18.51      10.62
H       4.38      19.93      10.68
H       5.39      19.53      12.08
H       6.03       8.54      17.84
H       5.18      10.88      18.16
H       5.10       6.28       0.94
H       1.05       3.93       0.60
H       1.38      11.24       1.96
H       2.73       9.46       2.90
H       3.81       9.18       1.52
H       2.80       7.85       2.13
H       7.17      21.49      18.25
H       1.03       1.38       1.26
C       4.96      19.66       3.21
C       4.45      20.02       4.56
C       5.16      19.60       5.71
C       4.63      19.92       6.97
C       3.46      20.63       7.11
C       1.09       1.29       5.96
C       1.60       0.98       4.69
C       2.99      20.99       8.48
C       1.72       2.46       9.08
C       1.14       2.77      10.33
C       2.80       3.33       8.52
C       3.26      16.60       0.63
C       3.75      15.21       0.47
C       3.04      14.13       1.05
C       3.56      12.84       0.93
C       4.73      12.59       0.24
C       7.10      16.79      19.18
C       6.60      18.09      19.30
C       5.20      11.18       0.11
C       6.47      13.52      18.51
C       7.05      12.24      18.41
C       5.39      13.94      17.57
C       3.23       3.21      16.29
C       3.74       2.86      14.95
C       3.03       3.27      13.79
C       3.56       2.96      12.54
C       4.73       2.24      12.40
C       7.10      21.58      13.54
C       6.59      21.90      14.81
C       5.20       1.88      11.03
C       6.47      20.41      10.42
C       7.05      20.11       9.18
C       5.39      19.54      10.99
C       4.93       6.28      18.86
C       4.44       7.67      19.03
C       5.16       8.75      18.45
C       4.64      10.04      18.57
C       3.46      10.29      19.26
C       1.09       6.08       0.33
C       1.60       4.78       0.20
C       2.99      11.70      19.40
C       1.72       9.36       0.99
C       1.14      10.63       1.10
C       2.80       8.93       1.94
O       2.70       0.35       2.17
O       6.01      18.92       3.15
O       3.91      17.55       0.11
O       2.18      16.76       1.31
O       3.84       2.79      17.33
O       2.18       3.95      16.35
O       4.26       5.32      19.36
O       6.02       6.12      18.19
O       0.65       0.72       0.65
O       7.53      22.16      18.86
