70

C      19.01       8.88       1.81
C      16.61      13.46       5.96
C      16.61      11.99       6.03
C      19.03      10.84       3.37
C      18.39       9.69       2.89
C      17.16       9.31       3.44
C      18.45      11.60       4.38
C      17.22      11.22       4.95
C      16.59      10.05       4.47
C      13.10      20.91       1.81
C      15.50      16.32       5.96
C      15.50      17.80       6.03
C      13.08      18.94       3.37
C      13.72      20.09       2.89
C      14.95      20.48       3.44
C      13.66      18.18       4.38
C      14.89      18.57       4.95
C      15.52      19.74       4.47
C      13.10       8.88      12.45
C      15.50      13.46       8.30
C      15.50      11.99       8.24
C      13.08      10.84      10.89
C      13.72       9.69      11.37
C      14.95       9.31      10.82
C      13.66      11.60       9.89
C      14.89      11.22       9.32
C      15.52      10.05       9.80
C      19.01      20.91      12.45
C      16.61      16.32       8.30
C      16.61      17.80       8.24
C      19.03      18.95      10.89
C      18.39      20.09      11.37
C      17.16      20.48      10.82
C      18.45      18.18       9.89
C      17.22      18.57       9.32
C      16.59      19.74       9.80
C      16.05      14.20       7.13
C      16.05      11.34       7.13
C      16.05      15.59       7.13
C      16.05      18.45       7.13
H      19.99      11.13       2.95
H      16.66       8.42       3.05
H      18.95      12.49       4.75
H      15.62       9.75       4.88
H      12.11      18.66       2.95
H      15.45      21.36       3.05
H      13.15      17.29       4.75
H      16.48      20.03       4.88
H      12.12      11.13      11.31
H      15.45       8.42      11.22
H      13.16      12.49       9.52
H      16.49       9.75       9.39
H      19.99      18.66      11.31
H      16.65      21.36      11.22
H      18.95      17.30       9.52
H      15.62      20.03       9.39
H      16.05      10.25       7.13
H      16.05      19.54       7.13
O      20.16       9.25       1.39
O      18.34       7.87       1.39
O      17.22      14.06       5.06
O      11.95      20.53       1.39
O      13.76      21.92       1.39
O      14.89      15.72       5.06
O      11.96       9.25      12.88
O      13.77       7.87      12.87
O      14.89      14.06       9.21
O      20.15      20.53      12.88
O      18.34      21.92      12.87
O      17.22      15.73       9.21
