70

C       5.08       6.01      26.72
C       7.47       1.43      22.56
C       7.47       2.90      22.50
C       5.05       4.05      25.15
C       5.70       5.20      25.63
C       6.93       5.59      25.08
C       5.63       3.29      24.15
C       6.86       3.68      23.58
C       7.49       4.85      24.06
C      10.98      -6.01      26.72
C       8.59      -1.43      22.56
C       8.58      -2.90      22.50
C      11.01      -4.05      25.15
C      10.36      -5.20      25.63
C       9.13      -5.59      25.08
C      10.43      -3.29      24.15
C       9.20      -3.68      23.58
C       8.57      -4.85      24.06
C      10.98       6.01      16.07
C       8.59       1.43      20.23
C       8.58       2.91      20.29
C      11.01       4.05      17.63
C      10.36       5.20      17.15
C       9.13       5.59      17.70
C      10.42       3.29      18.64
C       9.19       3.68      19.21
C       8.56       4.85      18.73
C       5.08      -6.01      16.07
C       7.47      -1.43      20.23
C       7.48      -2.91      20.29
C       5.05      -4.05      17.63
C       5.70      -5.20      17.15
C       6.93      -5.59      17.70
C       5.63      -3.29      18.64
C       6.86      -3.68      19.21
C       7.49      -4.85      18.73
C       8.03       0.70      21.39
C       8.03       3.55      21.39
C       8.03      -0.70      21.39
C       8.03      -3.55      21.39
H       4.09       3.76      25.58
H       7.43       6.47      25.48
H       5.13       2.40      23.78
H       8.46       5.14      23.65
H      11.97      -3.77      25.58
H       8.63      -6.47      25.48
H      10.93      -2.40      23.78
H       7.60      -5.14      23.65
H      11.97       3.77      17.21
H       8.63       6.47      17.31
H      10.93       2.40      19.01
H       7.60       5.14      19.14
H       4.09      -3.77      17.21
H       7.43      -6.47      17.31
H       5.13      -2.40      19.01
H       8.46      -5.14      19.14
H       8.03       4.65      21.39
H       8.03      -4.65      21.39
O       3.93       5.64      27.14
O       5.74       7.03      27.13
O       6.87       0.83      23.47
O      12.13      -5.64      27.14
O      10.32      -7.03      27.13
O       9.19      -0.83      23.47
O      12.13       5.64      15.65
O      10.32       7.03      15.65
O       9.19       0.83      19.32
O       3.93      -5.64      15.65
O       5.74      -7.03      15.65
O       6.87      -0.83      19.32
