20

Zn       3.51      10.43       2.10
Zn       2.28       6.02       3.04
C       4.17       7.82       1.50
N       2.28       4.40       1.89
N       0.44       6.83       3.08
O       3.07       7.65       2.13
O       4.66       8.97       1.27
C       1.97       4.35       0.59
C       2.81       3.16       2.23
O       3.57       6.05       4.52
C       0.06       7.81       2.26
C      -0.67       6.47       3.83
O       1.97      10.65       0.87
O       4.66      12.04       1.87
C       3.15       5.29       5.50
C       1.22      11.68       1.15
C       5.69      12.07       2.67
C       3.04       9.32       4.92
C       2.64      11.46       4.72
N       2.96      10.31       4.03
