36

Al      10.27      10.41      10.40
O       6.37      11.43      11.70
Al      12.84      12.55      10.41
O      16.74      13.38      13.67
Al       7.70      10.40      12.54
Al      15.42      12.54      12.55
O       8.04      11.76      13.87
O      14.16      13.67       9.57
O      15.16      11.23      13.92
O      11.52      11.52      11.25
O      11.56      13.38       9.28
O       6.42       9.57      13.67
O      15.75      13.86      11.19
O       8.94      11.25      11.43
C      12.66      10.06       8.79
O       9.02       9.28      13.39
O      10.02      11.72       9.03
O      10.61       9.09      11.76
C       7.94       8.75      10.08
C      13.08      14.19      12.87
C       7.52      12.89      14.16
C      15.23      14.16      10.06
C       5.37      10.08      14.19
C      10.51      12.87       8.76
C      10.09       8.79      12.89
H       9.40      11.98      11.88
H      11.97      11.06      11.97
H       6.83      11.89      10.98
H      14.55      10.98      11.06
O      11.59       9.56       9.28
O      13.18      11.19       9.09
O       8.99       9.28       9.57
O       7.45       9.03      11.23
O      14.09      11.70      11.52
O      14.13      13.67      13.38
O      12.59      13.92      11.72
