36

Al      10.28       4.90       4.89
O      12.60       3.58       1.38
Al      12.85       4.89       2.75
Al       7.71       2.76       4.90
O      16.74       1.63       1.91
Al      15.42       2.75       2.76
O       8.04       1.43       3.54
O       9.02       1.91       6.02
C      12.66       6.52       5.24
O      11.56       6.02       1.92
O      14.10       3.78       3.60
O      14.17       5.74       1.63
C       7.94       5.22       6.54
O       6.38       3.60       3.87
O       6.42       1.63       5.73
O      15.17       1.38       4.07
O      15.76       4.11       1.43
C      13.08       2.43       1.11
C       7.52       1.13       2.41
C      10.09       2.41       6.52
C      10.51       6.54       2.43
C       5.37       1.11       5.22
C      15.24       5.24       1.13
H       9.43       3.39       3.34
H      12.00       3.34       4.26
H       6.85       4.31       3.40
H      14.57       4.26       4.31
O      11.53       4.04       3.79
O      11.59       6.02       5.74
O      13.18       6.22       4.11
O       8.95       3.86       4.05
O       8.99       5.73       6.02
O      10.61       3.54       6.22
O      10.02       6.27       3.58
O       7.45       4.07       6.27
O      14.14       1.92       1.63
