42

C       6.65      15.04      32.38
C       4.61      16.33      32.97
C       3.75      16.90      33.91
C       5.74      15.64      33.41
C       6.03      15.51      34.77
C       4.01      16.80      35.29
C       3.11      17.46      36.27
C       5.16      16.10      35.70
C       2.51      19.44      37.56
C       1.33      18.81      37.96
C       1.03      17.50      37.56
C       0.38      19.58      38.82
C       3.41      18.76      36.73
C       1.93      16.84      36.71
C       4.89      20.64      36.71
C       2.39      17.86      32.18
C       0.50      14.92      36.58
C       6.53      15.41      37.55
O       7.57      14.24      32.78
H       4.43      16.42      31.90
H       6.91      14.96      35.08
O       6.43      15.38      31.16
O      -0.55      18.93      39.42
H       2.70      20.45      37.90
H       0.11      17.04      37.90
O       0.57      20.85      38.88
O       2.62      17.60      33.58
O       5.36      16.07      37.06
O       4.59      19.30      36.29
O       1.72      15.57      36.23
H       5.85      20.88      36.24
H       4.98      20.71      37.80
H       4.12      21.34      36.35
H       1.46      18.44      32.13
H       2.26      16.93      31.61
H       3.22      18.44      31.75
H       0.52      13.95      36.08
H      -0.38      15.50      36.24
H       0.42      14.77      37.67
H       6.49      15.51      38.64
H       7.45      15.89      37.18
H       6.54      14.35      37.27
