42

C       5.75       8.69      16.38
C      10.91       8.29      12.46
C       5.88       9.82      17.19
C      11.09       7.92      13.80
C      10.10       8.25      14.73
C       7.42      10.33      11.30
C       9.22      12.34      16.75
H       9.67       9.24      10.99
C      11.31       7.20      16.51
C       5.60       6.44      14.70
H       7.04      11.54      17.72
H       4.88       8.05      16.51
H      11.99       7.38      14.08
H       6.44      10.81      11.27
H       8.20      11.03      11.00
H       7.42       9.46      10.63
H      10.16      12.81      16.44
H       8.38      13.03      16.58
H       9.26      12.09      17.82
H       5.78       5.67      13.95
H       5.54       5.99      15.70
H       4.66       6.96      14.48
H      11.17       7.06      17.59
H      11.37       6.22      16.02
H      12.25       7.75      16.34
O       6.72       7.33      14.59
C       6.98      10.68      17.07
C       4.86      10.10      18.23
O       5.00      11.18      18.92
O      12.82       7.06      11.82
C       9.77       8.98      12.04
O      11.80       8.39      10.26
C       7.87       9.25      15.31
O       3.92       9.24      18.38
O       7.60       9.92      12.67
C       6.75       8.41      15.44
O       9.09      11.16      15.94
C       8.93       8.93      14.33
C       8.77       9.28      12.98
C       7.97      10.39      16.14
O      10.17       7.95      16.07
C      11.92       7.90      11.44
