42

C      16.07      13.49       8.01
H      20.33      15.66      12.22
H      22.39      13.48       9.17
H      15.30      11.22       8.77
H      17.30       8.76      11.66
H      20.44       9.40      13.33
H      19.57       8.45      12.09
H      18.66       9.16      13.47
H      17.08      14.95      13.66
H      18.08      16.05      12.65
H      18.86      15.02      13.90
H      21.26      10.54       7.40
H      22.44      11.27       8.53
H      21.62      12.29       7.31
O      22.47      16.63      11.53
O      14.30       9.02       9.13
O      15.29       7.82      10.79
O      23.57      15.38       9.97
O      20.40      11.61       8.88
O      18.14      14.00      12.22
O      19.36      10.53      12.04
H      16.30      14.47       7.56
H      15.12      13.54       8.55
H      16.00      12.73       7.21
O      17.16      13.23       8.89
C      22.58      15.62      10.75
C      15.19       8.85      10.03
C      20.34      14.82      11.54
C      19.32      12.84      10.56
C      18.22      11.85      10.47
C      20.45      12.69       9.73
C      19.28      13.91      11.46
C      21.46      14.64      10.71
C      21.52      13.58       9.80
C      18.27      10.66      11.22
C      17.14      12.05       9.59
C      16.13      11.09       9.45
C      17.27       9.69      11.10
C      16.22       9.91      10.21
C      19.50       9.30      12.78
C      18.05      15.08      13.16
C      21.50      11.43       7.98
