18

O      12.00       3.78       9.75
O      13.17       5.11       8.35
C      17.09       4.91      16.02
O      16.67       5.20      17.23
O      18.38       4.91      15.76
C      13.13       4.36       9.43
C      15.72       4.20      12.68
C      14.71       5.17      12.60
C      14.17       4.45      10.42
C      15.13       3.43      10.53
C      16.13       4.82      14.92
C      15.03       5.69      14.87
N      14.00       5.31      11.46
N      15.91       3.35      11.64
N      16.43       4.07      13.83
N      14.37       5.88      13.70
H      15.18       2.65       9.78
H      14.77       6.30      15.72
