18

O       7.17       5.97       6.92
N       4.90       5.10       4.93
N       3.06       3.52       6.25
N       1.91       3.14       4.22
N       3.55       4.97       2.98
C       1.41       2.16       2.01
O       6.96       3.76       7.45
O       0.13       1.79       1.84
C       6.50       4.82       6.83
H       4.32       3.70       7.94
H       2.46       4.55       1.22
O       2.38       1.44       1.50
C       2.87       3.80       4.94
C       3.76       4.67       4.29
C       5.13       4.74       6.24
C       4.15       3.99       6.92
C       1.80       3.32       2.87
C       2.56       4.35       2.28
