408

C       9.85      29.15       1.04
C       9.88      31.20      43.53
C       9.75      29.08      42.38
C       9.89       4.72      42.44
C       9.86       2.63      43.63
C       9.75       4.69       1.10
C       9.87      11.98      22.91
C       9.88      14.04      21.65
C       9.76      11.91      20.50
C       9.89      21.88      20.57
C       9.86      19.78      21.75
C       9.75      21.85      22.97
C       0.20       0.97      26.59
C       0.19      32.91      26.53
C       0.53      34.14      24.54
C       0.07      32.85      17.01
C       0.13       0.91      16.95
C       0.43      34.07      19.00
C       0.24      18.14       4.68
C       0.19      15.76       4.62
C       0.64      16.98       2.65
C       0.11      15.69      38.91
C       0.13      18.06      38.85
C       0.54      16.92      40.88
C       9.71      25.66      37.79
C       9.53      25.03      35.47
C       0.01      23.38      37.13
C       9.70       8.12       5.68
C       9.52       8.78       7.98
C       9.90      10.42       6.30
C       9.87      25.79       5.69
C       0.12      25.14       8.00
C       9.71      23.49       6.31
C       9.85       8.08      37.81
C       0.10       8.75      35.50
C       9.64      10.38      37.20
C       9.73       8.49      15.92
C       9.70       7.95      13.58
C       0.05       6.22      15.19
C       9.71      25.28      27.55
C       9.69      25.85      29.88
C       0.04      27.56      28.24
C       9.88       8.61      27.55
C       9.87       8.04      29.88
C       9.71       6.32      28.25
C       9.85      25.25      15.95
C       9.84      25.83      13.62
C       9.63      27.53      15.26
C       0.00       1.19      43.57
C       0.34       0.51      42.38
C       0.36      33.41      42.30
C       0.03      32.65      43.47
C       0.77      32.82      41.11
C       2.18      32.53      40.95
C       0.00      18.34      21.69
C       0.32      17.66      20.49
C       0.34      16.25      20.42
C       0.03      15.48      21.59
C       0.74      15.66      19.22
C       2.15      15.37      19.05
C       9.70      26.60      38.87
C       9.41      27.97      38.72
C       9.40      28.85      39.84
C       9.69      28.33      41.14
C       9.05      30.18      39.64
C       7.65      30.54      39.76
C       9.69       7.16       4.61
C       9.48       5.78       4.77
C       9.48       4.90       3.65
C       9.70       5.43       2.34
C       9.22       3.55       3.84
C       7.85       3.11       3.94
C       9.88      26.74       4.60
C       0.16      28.13       4.74
C       0.17      28.99       3.61
C       9.88      28.44       2.30
C       0.40      30.35       3.79
C       1.78      30.78       3.90
C       9.88       7.14      38.89
C       0.22       5.76      38.75
C       0.25       4.90      39.89
C       0.02       5.44      41.19
C       0.55       3.56      39.70
C       1.94       3.17      39.55
C       9.69       9.42      17.01
C       9.41      10.79      16.85
C       9.40      11.68      17.97
C       9.69      11.16      19.27
C       9.06      13.00      17.76
C       7.66      13.36      17.88
C       9.68      24.33      26.47
C       9.48      22.94      26.64
C       9.48      22.06      25.52
C       9.69      22.59      24.21
C       9.23      20.71      25.72
C       7.84      20.29      25.81
C       0.00       9.55      26.46
C       0.18      10.94      26.61
C       0.18      11.81      25.48
C       9.90      11.26      24.17
C       0.40      13.17      25.66
C       1.76      13.64      25.80
C       9.90      24.32      17.03
C       0.22      22.93      16.88
C       0.25      22.07      18.01
C       0.03      22.61      19.32
C       0.53      20.72      17.82
C       1.92      20.33      17.67
C       0.11      31.62      27.09
C       0.41      31.33      28.44
C       0.44      29.99      28.89
C       0.13      28.95      27.96
C       0.86      29.72      30.19
C       2.28      29.57      30.44
C       0.07       2.18      16.35
C       0.36       2.45      15.00
C       0.40       3.79      14.54
C       0.12       4.84      15.47
C       0.79       4.04      13.23
C       2.20       4.17      12.94
C       9.83      31.56      16.45
C       9.43      31.31      15.12
C       9.31      29.98      14.66
C       9.60      28.92      15.56
C       8.85      29.75      13.36
C       7.41      29.70      13.16
C       0.08       2.26      27.16
C       9.53       2.53      28.46
C       9.38       3.88      28.89
C       9.71       4.93      27.98
C       8.86       4.13      30.15
C       7.42       4.18      30.31
C       0.09      14.48       5.18
C       0.53      14.17       6.48
C       0.56      12.82       6.91
C       0.12      11.80       6.00
C       1.14      12.51       8.14
C       2.54      12.15       8.16
C       0.04      19.33      38.27
C       0.48      19.62      36.96
C       0.53      20.97      36.52
C       0.11      21.99      37.42
C       1.10      21.26      35.28
C       2.51      21.59      35.26
C       9.86      14.40      38.36
C       9.30      14.14      37.10
C       9.15      12.80      36.66
C       9.58      11.76      37.52
C       8.51      12.55      35.45
C       7.09      12.27      35.46
C       0.10      19.43       5.23
C       9.41      19.71       6.48
C       9.24      21.06       6.89
C       9.68      22.10       6.02
C       8.57      21.33       8.08
C       7.14      21.58       8.01
C       0.61      34.13      20.38
C       1.08       0.98      21.02
C       1.13       1.04      22.43
C       0.68      34.20      23.14
C       1.64       2.17      23.05
C       3.08       2.26      23.24
C       0.75      16.98      42.26
C       1.22      18.14      42.90
C       1.27      18.19       0.55
C       0.82      17.05       1.26
C       1.78      19.33       1.17
C       3.21      19.43       1.37
C       9.58      25.58      31.27
C       8.93      24.44      31.77
C       8.81      24.25      33.17
C       9.38      25.22      34.06
C       8.07      23.17      33.64
C       6.66      23.40      33.93
C       9.59       8.23      12.19
C       8.96       9.39      11.69
C       8.84       9.58      10.29
C       9.39       8.60       9.40
C       8.11      10.67       9.83
C       6.70      10.49       9.53
C       0.04      25.58      12.22
C       0.71      24.47      11.69
C       0.84      24.31      10.28
C       0.25      25.29       9.42
C       1.61      23.26       9.80
C       3.01      23.51       9.53
C       0.05       8.30      31.28
C       0.69       9.44      31.81
C       0.81       9.59      33.22
C       0.24       8.60      34.08
C       1.56      10.66      33.71
C       2.96      10.43      33.99
H       0.59       1.06      41.55
H       2.75      33.45      40.80
H       2.33      31.88      40.08
H       2.58      32.01      41.82
H       0.56      18.21      19.66
H       2.71      16.30      18.90
H       2.30      14.73      18.18
H       2.55      14.85      19.92
H       9.18      28.33      37.79
H       7.08      30.16      38.91
H       7.54      31.63      39.79
H       7.22      30.14      40.68
H       9.31       5.40       5.71
H       7.41       3.42       4.89
H       7.79       2.02       3.86
H       7.25       3.54       3.13
H       0.31      28.52       5.68
H       2.20      30.49       4.86
H       1.84      31.87       3.81
H       2.39      30.35       3.10
H       0.40       5.38      37.81
H       2.32       3.50      38.58
H       2.04       2.09      39.61
H       2.55       3.62      40.34
H       9.19      11.15      15.92
H       7.09      12.97      17.03
H       7.55      14.45      17.90
H       7.23      12.96      18.80
H       9.32      22.57      27.58
H       7.40      20.61      26.75
H       7.78      19.20      25.75
H       7.26      20.70      24.99
H       0.31      11.33      27.55
H       2.17      13.36      26.77
H       1.79      14.72      25.71
H       2.40      13.21      25.02
H       0.38      22.55      15.95
H       2.32      20.67      16.71
H       2.02      19.24      17.73
H       2.53      20.76      18.48
H       0.68      32.10      29.07
H       2.73      28.89      29.71
H       2.44      29.14      31.43
H       2.78      30.53      30.39
H       0.60       1.67      14.37
H       2.68       4.84      13.66
H       2.35       4.59      11.95
H       2.69       3.20      12.99
H       9.21      32.10      14.50
H       6.94      29.04      13.90
H       7.19      29.30      12.17
H       6.98      30.69      13.25
H       9.27       1.76      29.08
H       6.97       4.81      29.54
H       7.17       4.61      31.28
H       6.99       3.18      30.24
H       0.89      14.91       7.08
H       2.77      11.40       7.40
H       2.81      11.73       9.13
H       3.17      13.03       7.97
H       0.83      18.87      36.37
H       2.76      22.34      36.01
H       2.79      22.00      34.28
H       3.11      20.70      35.44
H       8.97      14.92      36.52
H       6.85      11.52      36.23
H       6.77      11.87      34.50
H       6.53      13.18      35.67
H       9.07      18.94       7.06
H       6.91      22.31       7.23
H       6.79      21.99       8.96
H       6.60      20.65       7.81
H       1.39       1.79      20.47
H       3.47       1.34      23.66
H       3.31       3.07      23.93
H       3.58       2.46      22.29
H       1.53      18.95      42.35
H       3.60      18.51       1.79
H       3.43      20.24       2.06
H       3.71      19.63       0.42
H       8.51      23.77      31.12
H       6.53      24.29      34.54
H       6.25      22.55      34.48
H       6.10      23.52      33.00
H       8.56      10.06      12.34
H       6.55       9.60       8.92
H       6.32      11.35       8.98
H       6.13      10.39      10.46
H       1.14      23.79      12.33
H       3.14      24.43       8.95
H       3.44      22.69       8.95
H       3.57      23.61      10.47
H       1.12      10.12      31.18
H       3.10       9.52      34.58
H       3.38      11.26      34.56
H       3.52      10.32      33.05
N       9.89      30.52       0.95
N       9.81      30.44      42.40
N       9.79      28.47      43.61
N       0.01       3.36      42.49
N       9.78       3.33       1.04
N       9.81       5.36      43.65
N       9.90      13.35      22.83
N       9.80      13.27      20.52
N       9.80      11.30      21.73
N       0.01      20.52      20.61
N       9.78      20.48      22.92
N       9.81      22.51      21.77
N       0.09      34.08      27.23
N       0.39      32.96      25.19
N       0.41       0.95      25.26
N       9.90      34.02      16.31
N       0.35       0.90      18.28
N       0.27      32.90      18.35
N       0.09      16.94       5.32
N       0.45      15.81       3.29
N       0.50      18.12       3.36
N       9.90      16.86      38.22
N       0.40      18.06      40.18
N       0.38      15.75      40.24
N       9.55      25.99      36.46
N       9.73      23.76      35.86
N       9.88      24.34      38.09
N       9.54       7.81       7.01
N       9.72      10.05       7.58
N       9.86       9.44       5.36
N       0.10      26.10       7.02
N       9.86      23.86       7.59
N       9.74      24.47       5.37
N       0.09       7.78      36.47
N       9.81      10.02      35.92
N       9.70       9.40      38.13
N       9.63       8.86      14.60
N       9.85       6.65      13.91
N       9.88       7.16      16.18
N       9.61      24.93      28.87
N       9.84      27.14      29.52
N       9.87      26.61      27.27
N       0.03       8.97      28.87
N       9.76       6.75      29.53
N       9.78       7.27      27.28
N       0.02      24.90      14.62
N       9.70      27.12      13.98
N       9.71      26.58      16.23
N       9.65      33.38       0.83
N       9.64       0.39       0.88
N       9.66      16.22      22.71
N       9.65      17.54      22.76
N       0.05      26.99      41.19
N       0.05      26.20      40.15
N       9.89       6.78       2.28
N       9.88       7.58       3.32
N       9.71      27.09       2.27
N       9.71      26.30       3.32
N       9.70       6.79      41.22
N       9.68       7.57      40.17
N       0.03       9.82      19.33
N       0.04       9.02      18.29
N       9.87      23.94      24.15
N       9.87      24.74      25.19
N       9.75       9.90      24.13
N       9.75       9.11      25.18
N       9.73      23.96      19.36
N       9.71      24.74      18.31
N       9.75      29.32      26.68
N       9.75      30.56      26.28
N       9.75       4.48      16.75
N       9.74       3.25      17.16
N       0.06      29.25      16.82
N       0.16      30.48      17.24
N       0.23       4.57      26.75
N       0.35       3.34      26.37
N       9.62      12.20       4.77
N       9.63      13.44       4.38
N       9.60      21.62      38.66
N       9.59      20.38      39.05
N       0.20      12.10      38.73
N       0.32      13.33      39.12
N       0.33      21.74       4.84
N       0.47      20.50       4.48
N       0.27      33.12      22.44
N       0.24      33.08      21.14
N       0.41      15.96       0.56
N       0.38      15.92      43.02
N       0.07      26.30      33.48
N       0.14      26.47      32.18
N       0.06       7.51       9.97
N       0.14       7.34      11.27
N       9.54      26.35      10.02
N       9.46      26.49      11.32
N       9.56       7.53      33.48
N       9.48       7.39      32.18
O       0.20      33.21      40.10
O       0.17      16.05      18.21
O       9.67      30.76      38.76
O       0.12       2.96       4.56
O       9.49      30.94       4.48
O       9.65       2.92      39.03
O       9.66      13.59      16.87
O       0.12      20.12      26.45
O       9.46      13.74      26.34
O       9.64      20.10      17.12
O       0.21      30.25      31.08
O       0.11       3.51      12.36
O       9.50      30.26      12.46
O       9.49       3.66      31.09
O       0.77      13.17       9.10
O       0.69      20.61      34.33
O       8.92      13.18      34.48
O       8.94      20.72       9.08
O       1.06       3.22      22.81
O       1.19      20.37       0.93
O       8.34      22.07      33.18
O       8.42      11.77      10.29
O       1.36      22.14      10.23
O       1.28      11.77      33.27
