36

C       9.80       9.06      18.75
C      10.54       9.90      19.72
C      11.94      10.08      19.64
C      12.65      10.52      20.77
C      11.97      10.86      21.95
C      10.55      10.84      21.97
C       9.85      10.38      20.85
C      12.75      11.14      23.17
O      12.47      12.20      23.89
C       9.80      11.27      23.16
C       9.15      12.52      23.18
C       8.38      12.90      24.28
C       9.65      10.41      24.26
C      12.67       9.90      18.36
C      12.49      10.83      17.32
O      13.70      10.31      23.54
C       8.88      10.79      25.36
C       8.24      12.03      25.37
C      13.70       8.95      18.27
C      13.31      10.78      16.19
C      14.55       8.94      17.17
C      14.35       9.84      16.12
H      13.73      10.61      20.73
H       8.77      10.33      20.89
H      13.16      11.48      15.38
H      15.00       9.82      15.25
H      15.37       8.23      17.12
H      13.86       8.24      19.08
H      11.72      11.59      17.39
H       9.24      13.19      22.33
H       7.88      13.86      24.28
O       8.79       8.34      19.18
H      10.13       9.43      24.25
H       7.64      12.32      26.22
H       8.77      10.12      26.20
O      10.03       9.20      17.46
