36

C       4.85       7.76      19.88
H       1.20      10.42      20.96
H       4.44       6.93      22.39
H       1.18      10.20      16.20
H       3.04      11.76      15.66
H       4.84      12.16      17.30
H       4.80      11.03      19.51
H       1.19       8.96      18.34
H       2.10       5.49      23.35
H       1.84       4.32      25.52
H       2.99       9.14      25.47
H       2.70       7.96      27.62
H       2.12       5.55      27.64
C       1.03       9.84      23.55
O      -0.23       9.51      23.73
O       1.43      11.03      23.89
C       3.87       8.31      20.82
C       2.93       9.27      20.40
C       1.90       9.65      21.27
C       1.82       9.11      22.56
C       2.72       8.10      22.96
C       3.75       7.71      22.09
C       2.55       7.40      24.26
C       2.23       6.03      24.28
C       2.08       5.37      25.50
C       2.24       6.07      26.70
C       2.57       7.42      26.69
C       2.73       8.09      25.47
C       3.01       9.89      19.06
C       2.00       9.65      18.12
C       2.00      10.34      16.91
C       3.03      11.23      16.61
C       4.05      11.46      17.54
C       4.03      10.81      18.77
O       5.91       8.47      19.56
O       4.54       6.69      19.20
