54

C      -1.20      14.36      22.67
C      -1.57      15.14      23.79
C      -2.67      14.75      24.59
C      -3.08      15.55      25.65
C      -2.40      16.74      25.94
C      -1.30      17.13      25.16
C      -0.89      16.34      24.10
C      -2.89      17.62      27.04
O       0.30       1.94      20.59
O      -3.61      16.72      10.52
O      -1.92      18.19      10.95
O      -2.27      18.73      27.21
O      -3.90      17.22      27.71
O       0.11       1.96      18.32
H       0.34       4.15      21.61
H       0.29       6.65      21.63
H       0.27       6.66      17.31
H       0.31       4.17      17.31
H      -0.36      10.88      17.21
H      -1.04      14.65      19.20
H      -0.38      11.08      21.53
H      -3.04      13.46      14.02
H      -3.67      14.80      12.01
H      -0.53      17.60      12.87
H       0.12      16.27      14.88
H      -3.20      13.84      24.34
H      -3.93      15.27      26.26
H      -0.79      18.06      25.40
H      -0.04      16.63      23.48
C       0.24       2.53      19.46
C       0.31       4.02      19.46
C       0.33       4.71      20.68
C       0.30       6.10      20.69
C       0.26       6.82      19.47
C       0.29       6.11      18.25
C       0.31       4.72      18.25
C       0.13       8.23      19.47
C      -0.06       9.43      19.44
C      -0.31      10.82      19.38
C      -0.45      11.46      18.13
C      -0.70      12.84      18.06
C      -0.82      13.58      19.25
C      -0.72      12.95      20.50
C      -0.46      11.57      20.56
C      -0.89      13.48      16.81
C      -1.11      14.07      15.77
C      -1.42      14.78      14.58
C      -2.49      14.36      13.76
C      -2.84      15.10      12.64
C      -2.14      16.28      12.32
C      -1.07      16.69      13.13
C      -0.71      15.95      14.24
C      -2.58      17.12      11.18
C      -0.94      13.70      21.68
