54

H      -1.66      11.39      14.58
H      -0.93       9.96      12.66
H      -4.08       7.17      13.52
C      -3.93      11.53      17.24
C      -3.67      10.87      16.25
C      -3.29      10.09      15.13
C      -2.19      10.48      14.33
C      -1.79       9.68      13.27
H      -4.82       8.59      15.44
C      -3.56       8.10      13.76
C      -3.98       8.89      14.82
C      -2.46       8.49      12.98
C      -1.98       7.61      11.88
C      -3.80       8.54      25.79
C      -2.03      10.13      26.28
C      -4.16       9.28      24.67
C      -2.28       8.11      27.74
H      -4.48      14.15      17.39
H      -4.98       8.96      24.04
H      -1.82      11.77      24.90
O      -5.16      23.29      18.33
O      -1.25       8.51      28.39
O      -2.95       7.04      27.97
O      -2.60       6.50      11.71
O      -0.97       8.01      11.21
O      -4.98      23.27      20.60
H      -1.20      10.43      26.91
H      -5.21      21.08      17.31
H      -5.16      18.58      17.29
H      -5.14      18.57      21.60
C      -4.15      12.28      18.42
H      -3.83      10.58      19.72
C      -4.41      13.66      18.36
C      -5.10      22.70      19.46
C      -5.17      21.21      19.46
C      -5.19      20.52      18.24
C      -5.17      19.13      18.23
C      -5.13      18.41      19.45
C      -5.16      19.12      20.67
C      -5.17      20.51      20.67
C      -4.99      17.00      19.45
C      -4.80      15.80      19.48
C      -4.55      14.41      19.54
C      -4.42      13.77      20.79
C      -4.16      12.39      20.86
C      -4.04      11.65      19.67
H      -5.17      21.06      21.61
H      -4.50      14.35      21.70
C      -3.98      11.75      22.11
C      -3.76      11.16      23.15
C      -3.44      10.45      24.33
C      -2.38      10.87      25.16
H      -4.33       7.63      26.05
C      -2.73       8.95      26.60
