54

O      -2.13      14.56      37.78
C      -2.13      16.63      38.92
C      -2.10      17.33      37.70
C      -2.13      18.72      37.69
C      -2.19      15.15      38.92
C      -2.14      18.72      40.13
C      -2.12      17.34      40.13
O      -2.32      14.57      40.06
C      -2.17      19.43      38.90
C      -2.30      20.84      38.91
C      -2.50      22.04      38.94
C      -2.75      23.44      39.00
C      -2.88      24.07      40.25
C      -3.13      25.45      40.32
C      -2.89      24.19      37.82
C      -3.32      26.09      41.57
C      -3.54      26.68      42.61
C      -3.15      25.56      37.88
C      -3.26      26.20      39.13
C      -3.85      27.40      43.79
C      -4.92      26.98      44.62
C      -5.27      27.72      45.74
C      -3.14      28.56      44.13
C      -3.50      29.30      45.25
C      -4.57      28.89      46.05
C      -5.01      29.73      47.20
C      -3.37      26.31      36.70
C      -3.63      26.98      35.71
C      -4.01      27.76      34.59
C      -5.10      27.37      33.79
C      -5.51      28.16      32.73
C      -3.32      28.95      34.28
C      -3.73      29.74      33.22
C      -4.84      29.36      32.44
C      -5.32      30.24      31.34
H      -2.09      16.77      36.76
H      -2.14      19.26      36.75
H      -2.16      19.28      41.06
H      -2.12      16.78      41.07
H      -2.80      23.49      41.16
H      -3.47      27.26      39.18
H      -2.82      23.69      36.85
H      -5.47      26.08      44.35
H      -6.10      27.41      46.37
H      -2.96      30.22      45.51
H      -2.31      28.88      43.50
O      -6.04      29.34      47.85
H      -5.64      26.45      34.04
H      -6.37      27.88      32.12
O      -4.35      30.80      47.43
H      -2.47      29.25      34.90
H      -3.22      30.67      32.98
O      -4.70      31.35      31.17
O      -6.33      29.83      30.67
