54

O      -2.84      24.99      20.39
O      11.43      19.29      27.66
O      13.08      20.81      27.23
O      11.72      18.80      10.48
O      13.41      20.24      10.99
O      -3.02      25.00      18.12
H      -0.91      24.60      16.94
H       1.52      24.03      16.76
H       1.81      24.00      21.06
H      -0.62      24.57      21.22
H       5.83      22.97      21.03
H       9.49      21.90      19.01
H       5.93      22.74      16.72
H       8.18      20.26      24.26
H       9.47      19.50      26.26
H      12.65      22.21      25.25
H      11.36      22.98      23.24
H      11.68      22.34      15.00
H      13.03      21.49      13.07
H       9.63      19.26      11.67
H       8.27      20.12      13.59
C      -2.36      24.89      19.20
C      -0.90      24.60      19.09
C      -0.30      24.46      17.83
C       1.05      24.15      17.74
C       1.82      23.96      18.90
C       1.21      24.13      20.17
C      -0.14      24.44      20.26
C       3.19      23.61      18.83
C       4.36      23.28      18.83
C       5.73      22.91      18.87
C       6.38      22.79      20.11
C       7.74      22.43      20.16
C       8.44      22.20      18.97
C       7.79      22.31      17.73
C       6.44      22.66      17.68
C       8.39      22.26      21.41
C       8.99      22.03      22.45
C       9.69      21.67      23.63
C       9.15      20.70      24.49
C       9.87      20.27      25.60
C      11.14      20.81      25.87
C      11.66      21.80      25.03
C      10.95      22.23      23.92
C      11.94      20.27      27.01
C       8.51      22.01      16.54
C       9.15      21.70      15.55
C       9.89      21.28      14.42
C      11.24      21.67      14.27
C      11.99      21.20      13.19
C      11.41      20.32      12.26
C      10.07      19.94      12.40
C       9.31      20.42      13.46
C      12.23      19.75      11.16
