54

H       6.48       2.26      17.89
O      15.14       0.24      18.53
O       0.87       5.94      11.26
O      -0.77       4.42      11.69
O       0.59       6.43      28.44
O      -1.10       4.99      27.93
O      15.33       0.22      20.80
C      14.66       0.34      19.71
C      13.21       0.63      19.83
C      12.61       0.77      21.09
C      11.26       1.08      21.18
C      10.49       1.27      20.01
C      11.10       1.10      18.75
C      12.44       0.79      18.66
C       9.12       1.62      20.09
C       7.94       1.95      20.09
C       6.58       2.32      20.05
C       5.93       2.44      18.81
C       4.57       2.80      18.75
C       3.87       3.03      19.95
C       4.51       2.92      21.19
C       5.87       2.57      21.24
C       3.91       2.97      17.51
C       3.32       3.20      16.47
C       2.62       3.56      15.29
C       3.16       4.53      14.43
C       2.44       4.96      13.32
C       1.17       4.42      13.05
C       0.64       3.43      13.89
C       1.36       3.00      15.00
C       0.37       4.96      11.91
C       3.80       3.22      22.38
C       3.16       3.53      23.37
C       2.41       3.95      24.49
C       1.07       3.56      24.65
H      13.22       0.63      21.98
C       0.90       4.91      26.66
C       2.24       5.29      26.52
H      10.79       1.20      22.16
H      10.50       1.23      17.85
H      12.93       0.66      17.69
C       2.99       4.81      25.45
H       2.82       3.32      19.91
C       0.32       4.03      25.73
H       4.13       4.97      14.66
H      -0.34       3.02      13.67
H       2.83       5.73      12.66
H       6.38       2.49      22.20
C       0.07       5.47      27.76
H       0.62       2.89      23.91
H      -0.72       3.74      25.85
H       2.68       5.97      27.25
H       4.03       5.11      25.33
H       0.94       2.25      15.67
