20

C       2.44      20.03      21.10
H       2.55      22.25      22.65
C       2.87      22.33      21.60
C       2.73      18.69      20.67
H       5.04      16.62      19.24
C       4.04      23.30      21.53
C       3.94      18.30      20.01
H       3.34      14.93      19.86
N       3.27      21.02      21.09
C       4.13      16.92      19.74
H       1.18      15.64      20.92
O       4.85      19.20      19.62
C       3.15      15.98      20.08
H       0.82      18.07      21.42
O       5.15      22.86      21.02
C       1.94      16.38      20.68
H       1.42      20.19      21.49
O       3.92      24.47      21.95
C       1.74      17.72      20.96
H       2.04      22.74      21.02
