20

C       0.02      25.24      22.41
H       0.24      22.78      23.51
C       0.56      23.64      24.11
C       0.26      26.31      21.48
H       2.44      28.71      20.39
C       1.78      23.24      24.94
C       1.44      27.12      21.44
H       0.66      29.01      18.70
N       0.89      24.77      23.25
C       1.55      28.09      20.42
H      -1.44      27.65      18.81
O       2.42      27.00      22.35
C       0.54      28.26      19.48
H      -1.67      25.94      20.62
O       2.84      23.96      24.81
C      -0.64      27.50      19.54
H      -0.98      24.80      22.37
O       1.74      22.24      25.70
C      -0.77      26.55      20.54
H      -0.27      23.90      24.80
