20

C       4.55       5.15       4.75
H       4.32       4.85       7.44
C       4.00       5.80       6.99
C       4.32       4.91       3.35
H       2.15       5.17       0.71
C       2.79       6.33       7.74
C       3.13       5.26       2.63
H       3.98       3.97      -0.42
N       3.67       5.62       5.58
C       3.04       4.90       1.26
H       6.10       3.43       0.81
O       2.12       5.93       3.20
C       4.09       4.23       0.63
H       6.28       4.05       3.23
O       1.71       6.53       7.05
C       5.27       3.92       1.32
H       5.55       4.90       5.11
O       2.83       6.55       8.98
C       5.38       4.27       2.66
H       4.83       6.52       7.11
