20

C       0.08      21.57      10.78
H       0.14      21.80       8.10
C       0.54      20.88       8.53
C       0.35      21.85      12.16
H       2.62      21.66      14.72
C       1.76      20.41       7.73
C       1.56      21.51      12.85
H       0.84      22.94      15.87
N       0.93      21.08       9.93
C       1.71      21.93      14.19
H      -1.31      23.46      14.70
O       2.53      20.79      12.27
C       0.69      22.64      14.84
H      -1.59      22.75      12.32
O       2.82      20.11       8.40
C      -0.51      22.94      14.18
H      -0.94      21.82      10.44
O       1.71      20.33       6.48
C      -0.67      22.54      12.86
H      -0.24      20.10       8.45
