20

C       0.09      33.54      13.40
H       0.24      35.74      14.96
C       0.57      35.83      13.91
C       0.36      32.20      12.95
H       2.62      30.09      11.48
C       1.76      36.77      13.84
C       1.56      31.78      12.28
H       0.88      28.43      12.08
N       0.93      34.52      13.38
C       1.71      30.41      11.99
H      -1.26      29.17      13.16
O       2.51      32.65      11.90
C       0.72      29.48      12.32
H      -1.56      31.59      13.70
O       2.84      36.32      13.28
C      -0.48      29.89      12.93
H      -0.92      33.70      13.81
O       1.70      37.92      14.32
C      -0.64      31.24      13.23
H      -0.26      36.28      13.34
