1008

C      -6.93      21.57      27.38
C      -6.95      20.35      28.09
C      -5.84      19.48      28.06
C      -4.72      19.84      27.29
C      -4.67      21.06      26.56
C      -5.78      21.92      26.63
C      -8.07      22.39      27.39
C      -9.21      22.04      26.63
C     -10.32      22.91      26.56
C     -10.27      24.12      27.29
C      -9.15      24.48      28.06
C      -8.04      23.61      28.09
C      16.04       5.35      19.27
C      16.05       6.58      18.59
C      16.12       6.62      17.18
C      16.21       5.41      16.47
C      16.20       4.15      17.13
C      16.11       4.14      18.54
C      16.04       5.34      20.68
C      17.20       5.67      21.41
C      17.22       5.58      22.82
C      16.04       5.17      23.48
C      14.86       4.85      22.77
C      14.88       4.93      21.36
C      28.15      -3.20      20.68
C      29.32      -2.79      21.37
C      29.33      -2.71      22.78
C      28.15      -3.03      23.48
C      26.97      -3.44      22.82
C      26.99      -3.53      21.41
C      28.15      -3.21      19.28
C      28.08      -2.00      18.55
C      27.99      -2.01      17.14
C      27.99      -3.27      16.48
C      28.07      -4.48      17.19
C      28.15      -4.44      18.59
C      -8.06      22.40      12.56
C      -9.20      21.97      11.85
C     -10.39      22.72      11.89
C     -10.42      23.90      12.67
C      -9.29      24.35      13.39
C      -8.11      23.59      13.32
C      -6.90      21.59      12.56
C      -6.85      20.40      13.32
C      -5.67      19.64      13.39
C      -4.53      20.09      12.67
C      -4.57      21.27      11.89
C      -5.76      22.02      11.85
C      22.66      10.56       6.85
C      22.64      10.55       5.44
C      23.75      11.01       4.70
C      24.87      11.51       5.40
C      24.92      11.53       6.82
C      23.80      11.04       7.53
C      21.52      10.14       7.56
C      20.38      10.97       7.63
C      19.26      10.60       8.42
C      19.32       9.37       9.11
C      20.44       8.51       9.04
C      21.54       8.92       8.26
C     -13.53       4.77      33.10
C     -13.53       4.75      34.51
C     -13.46       5.95      35.25
C     -13.36       7.17      34.55
C     -13.37       7.22      33.13
C     -13.46       6.01      32.42
C     -13.54       3.56      32.39
C     -12.38       2.76      32.32
C     -12.35       1.58      31.53
C     -13.53       1.22      30.84
C     -14.71       1.99      30.92
C     -14.70       3.17      31.69
C      -1.44       7.84      24.97
C      -0.28       7.04      24.99
C      -0.26       5.78      24.36
C      -1.44       5.32      23.72
C      -2.62       6.11      23.69
C      -2.60       7.37      24.31
C      -1.45       9.06      25.67
C      -1.52       9.09      27.08
C      -1.61      10.31      27.77
C      -1.61      11.51      27.02
C      -1.52      11.51      25.61
C      -1.45      10.27      24.94
C      21.53      22.98      14.97
C      20.39      23.81      14.96
C      19.19      23.40      15.59
C      19.16      22.14      16.22
C      20.29      21.29      16.26
C      21.48      21.73      15.63
C      22.68      23.38      14.28
C      22.73      23.32      12.87
C      23.92      23.65      12.17
C      25.05      24.04      12.92
C      25.01      24.13      14.33
C      23.82      23.79      15.00
C       7.87      33.86       7.58
C       7.85      35.08       8.28
C       8.96      35.49       9.05
C      10.08      34.63       9.13
C      10.13      33.40       8.44
C       9.01      33.03       7.66
C       6.73      33.45       6.87
C       5.58      32.97       7.55
C       4.47      32.48       6.84
C       4.53      32.49       5.42
C       5.65      32.98       4.72
C       6.75      33.45       5.46
C       1.26      -6.91      25.68
C       1.26      -8.11      24.95
C       1.33      -9.35      25.62
C       1.42      -9.36      27.03
C       1.42      -8.16      27.78
C       1.33      -6.93      27.09
C       1.25      -5.68      24.98
C       2.42      -5.22      24.33
C       2.44      -3.95      23.70
C       1.26      -3.17      23.73
C       0.08      -3.63      24.36
C       0.09      -4.89      24.99
C      13.36      -1.41      32.38
C      14.52      -1.03      31.68
C      14.53       0.15      30.91
C      13.36       0.93      30.83
C      12.18       0.57      31.53
C      12.19      -0.61      32.31
C      13.35      -2.62      33.09
C      13.28      -3.86      32.41
C      13.19      -5.08      33.13
C      13.19      -5.02      34.54
C      13.28      -3.80      35.24
C      13.35      -2.60      34.50
C       6.74      20.59      14.27
C       5.60      20.19      14.99
C       4.41      19.85      14.33
C       4.37      19.93      12.92
C       5.51      20.32      12.16
C       6.69      20.65      12.86
C       7.90      21.00      14.96
C       7.95      22.25      15.62
C       9.13      22.69      16.25
C      10.26      21.84      16.21
C      10.23      20.57      15.58
C       9.04      20.17      14.95
C      21.54       1.50      12.57
C      21.55       2.71      11.86
C      20.44       3.58      11.89
C      19.32       3.21      12.66
C      19.28       1.99      13.39
C      20.40       1.14      13.33
C      22.68       0.68      12.57
C      23.82       1.04      13.33
C      24.95       0.18      13.39
C      24.90      -1.03      12.66
C      23.78      -1.40      11.88
C      22.67      -0.53      11.86
C      -1.42      17.73      20.68
C      -1.42      16.50      21.37
C      -1.48      16.46      22.78
C      -1.57      17.68      23.48
C      -1.58      18.93      22.82
C      -1.49      18.94      21.41
C      -1.42      17.73      19.28
C      -2.59      17.39      18.55
C      -2.61      17.47      17.14
C      -1.43      17.88      16.48
C      -0.25      18.21      17.18
C      -0.26      18.13      18.59
C     -13.54      26.27      19.27
C     -14.70      25.87      18.58
C     -14.71      25.80      17.18
C     -13.53      26.12      16.47
C     -12.35      26.53      17.14
C     -12.37      26.61      18.55
C     -13.53      26.28      20.68
C     -13.47      25.06      21.40
C     -13.39      25.07      22.81
C     -13.39      26.32      23.48
C     -13.48      27.54      22.78
C     -13.54      27.50      21.37
C      22.67       0.67      27.40
C      23.81       1.09      28.11
C      25.00       0.33      28.08
C      25.03      -0.85      27.30
C      23.90      -1.29      26.57
C      22.72      -0.52      26.64
C      21.52       1.48      27.40
C      21.48       2.67      26.64
C      20.30       3.44      26.57
C      19.17       3.00      27.30
C      19.20       1.82      28.08
C      20.38       1.06      28.11
C      -8.04      12.51      33.11
C      -8.03      12.52      34.51
C      -9.14      12.06      35.25
C     -10.26      11.57      34.54
C     -10.30      11.55      33.13
C      -9.18      12.04      32.42
C      -6.90      12.92      32.40
C      -5.76      12.09      32.33
C      -4.64      12.46      31.56
C      -4.68      13.70      30.87
C      -5.81      14.56      30.94
C      -6.92      14.15      31.71
C      28.16      18.30       6.86
C      28.16      18.31       5.45
C      28.10      17.11       4.71
C      28.00      15.89       5.42
C      28.00      15.85       6.83
C      28.08      17.07       7.54
C      28.16      19.51       7.56
C      26.99      20.31       7.63
C      26.97      21.49       8.41
C      28.15      21.86       9.10
C      29.33      21.09       9.02
C      29.32      19.91       8.26
C      16.06      15.23      14.98
C      14.90      16.03      14.98
C      14.89      17.28      15.62
C      16.06      17.73      16.26
C      17.25      16.95      16.28
C      17.23      15.69      15.64
C      16.07      14.01      14.28
C      16.13      13.99      12.87
C      16.21      12.77      12.17
C      16.20      11.56      12.92
C      16.12      11.56      14.33
C      16.06      12.80      15.00
C      -6.91       0.09      24.98
C      -5.77      -0.74      24.98
C      -4.58      -0.34      24.34
C      -4.55       0.92      23.70
C      -5.69       1.78      23.68
C      -6.87       1.34      24.32
C      -8.06      -0.32      25.68
C      -8.10      -0.26      27.09
C      -9.28      -0.59      27.79
C     -10.42      -1.00      27.04
C     -10.39      -1.08      25.63
C      -9.20      -0.73      24.96
C       6.75     -10.79      32.38
C       6.76     -12.01      31.68
C       5.65     -12.42      30.92
C       4.53     -11.56      30.85
C       4.49     -10.32      31.53
C       5.61      -9.95      32.31
C       7.89     -10.38      33.09
C       9.03      -9.91      32.40
C      10.15      -9.42      33.11
C      10.11      -9.45      34.53
C       8.99      -9.94      35.23
C       7.88     -10.39      34.49
C      13.36      29.97      14.28
C      13.37      31.18      15.00
C      13.30      32.42      14.33
C      13.21      32.42      12.92
C      13.21      31.22      12.17
C      13.29      29.99      12.87
C      13.36      28.75      14.98
C      12.20      28.29      15.63
C      12.18      27.03      16.26
C      13.36      26.25      16.24
C      14.54      26.70      15.61
C      14.52      27.95      14.97
C       1.27      24.48       7.57
C       0.10      24.08       8.27
C       0.09      22.90       9.03
C       1.27      22.12       9.10
C       2.45      22.50       8.41
C       2.43      23.68       7.64
C       1.27      25.69       6.87
C       1.34      26.93       7.55
C       1.41      28.15       6.84
C       1.41      28.10       5.42
C       1.32      26.88       4.72
C       1.26      25.68       5.46
C       7.87       2.48      25.69
C       9.01       2.89      24.97
C      10.20       3.24      25.64
C      10.23       3.16      27.05
C       9.10       2.75      27.80
C       7.92       2.42      27.10
C       6.72       2.07      24.99
C       6.68       0.82      24.34
C       5.50       0.38      23.70
C       4.37       1.23      23.72
C       4.40       2.49      24.35
C       5.58       2.90      24.99
C      -5.85      15.77      30.20
C      -6.23      16.98      30.82
C      -6.23      18.17      30.12
C      -5.87      18.24      28.75
C      -5.52      17.02      28.12
C      -5.50      15.81      28.83
C      -6.77      18.52      32.15
C      16.15      10.35      15.06
C      15.20      10.08      16.06
C      15.20       8.87      16.75
C      16.16       7.87      16.50
C      17.14       8.14      15.51
C      17.14       9.36      14.80
C      13.57      10.08      17.39
C     -11.54      -1.45      24.90
C     -11.48      -2.44      23.90
C     -12.62      -2.84      23.21
C      30.49      -2.26      23.46
C     -13.95      -1.25      24.45
C     -12.80      -0.85      25.16
C     -10.94      -3.99      22.58
C      30.49      21.46       9.76
C     -12.62      21.51       9.13
C     -11.49      21.91       9.84
C     -11.55      22.27      11.20
C     -12.81      22.20      11.84
C     -13.96      21.80      11.13
C     -10.99      21.52       7.80
C      23.74      11.01       0.42
C      23.36       9.87       1.15
C      23.36       9.88       2.54
C      23.71      11.03       3.28
C      24.07      12.19       2.55
C      24.08      12.18       1.14
C      22.83       7.95       1.83
C       1.36      26.85       3.30
C       0.40      26.11       2.57
C       0.41      26.12       1.18
C       1.37      26.84       0.44
C       2.35      27.56       1.17
C       2.34      27.57       2.58
C      -1.23      24.97       1.90
C       3.24       3.31      24.39
C       3.30       4.67      24.03
C       2.16       5.47      24.03
C       0.90       4.96      24.40
C       0.83       3.60      24.79
C       1.98       2.79      24.78
C       3.84       6.59      23.36
C      15.70      25.88      15.56
C      16.96      26.39      15.92
C      18.09      25.58      15.91
C      18.04      24.22      15.54
C      16.77      23.70      15.16
C      15.62      24.52      15.17
C      18.59      27.54      16.59
C      23.74      -2.64      11.20
C      23.36      -2.71       9.84
C      23.36      -3.92       9.16
C      23.71      -5.13       9.78
C      24.07      -5.08      11.15
C      24.08      -3.85      11.85
C      22.83      -2.33       7.84
C       1.35     -13.06      23.46
C       0.40     -12.05      23.19
C       0.41     -10.85      23.89
C       1.37     -10.57      24.89
C       2.34     -11.56      25.15
C       2.33     -12.79      24.45
C      -1.23     -10.90      22.53
C      18.04       1.37      28.76
C      18.10       0.99      30.12
C      16.96       0.59      30.80
C      15.69       0.52      30.18
C      15.63       0.87      28.81
C      16.78       1.29      28.11
C      18.63       0.62      32.12
C       0.91      18.65      16.49
C       2.17      18.08      16.76
C       3.30      18.49      16.06
C       3.25      19.49      15.06
C       1.99      20.08      14.81
C       0.84      19.67      15.51
C       3.80      16.93      17.42
C      -1.53      15.21      23.46
C      -0.57      14.21      23.19
C      -0.59      13.00      23.89
C      -1.55      12.72      24.88
C      -2.53      13.72      25.14
C      -2.51      14.95      24.44
C       1.05      13.05      22.53
C      20.47       4.82      11.20
C      20.85       4.88       9.84
C      20.84       6.09       9.15
C      20.48       7.30       9.77
C      20.13       7.25      11.14
C      20.12       6.03      11.84
C      21.39       4.49       7.84
C     -15.87      25.35      16.49
C     -17.13      25.92      16.76
C     -18.26      25.51      16.06
C      26.17      24.50      15.07
C     -16.94      23.91      14.81
C     -15.79      24.33      15.51
C     -18.76      27.07      17.41
C      26.16       0.78      28.76
C     -18.28       1.15      30.12
C     -17.14       1.55      30.81
C     -15.87       1.62      30.19
C     -15.81       1.27      28.81
C     -16.96       0.86      28.12
C     -18.82       1.53      32.12
C      11.36       3.61      24.91
C      11.30       4.60      23.90
C      12.44       4.98      23.21
C      13.70       4.41      23.46
C      13.77       3.40      24.45
C      12.62       3.00      25.16
C      10.76       6.14      22.57
C      -1.07      22.53       9.76
C      -2.33      22.48       9.14
C      -3.46      22.08       9.84
C      -3.41      21.72      11.20
C      -2.15      21.79      11.84
C      -1.00      22.19      11.13
C      -3.96      22.48       7.81
C       5.68     -13.63      30.19
C       6.05     -14.84      30.81
C       6.04     -16.04      30.11
C       5.69     -16.11      28.75
C       5.34     -14.90      28.11
C       5.33     -13.68      28.81
C       6.58     -16.38      32.14
C      28.05      -8.20      15.06
C      29.01      -7.93      16.06
C      29.00      -6.73      16.75
C      28.04      -5.73      16.50
C      27.06      -6.00      15.51
C      27.07      -7.22      14.80
C      30.64      -7.93      17.39
C      13.73      18.10      15.57
C      12.46      17.58      15.93
C      11.33      18.40      15.92
C      11.39      19.76      15.54
C      12.65      20.27      15.16
C      13.80      19.46      15.18
C      10.83      16.44      16.60
C      -3.42      -1.15      24.39
C      -3.49      -2.52      24.03
C      -2.35      -3.31      24.04
C      -1.08      -2.81      24.41
C      -1.01      -1.44      24.79
C      -2.17      -0.63      24.78
C      -4.03      -4.44      23.36
C      28.05      17.14       3.29
C      29.01      17.87       2.56
C      29.00      17.87       1.17
C      28.03      17.15       0.43
C      27.06      16.43       1.16
C      27.07      16.42       2.57
C      30.64      19.02       1.89
C       5.69      32.96       0.44
C       6.06      34.11       1.17
C       6.05      34.10       2.56
C       5.69      32.95       3.30
C       5.34      31.79       2.57
C       5.34      31.79       1.16
C       6.59      36.03       1.83
C     -12.97      23.92      23.53
C     -13.49      23.63      24.81
C     -12.67      23.10      25.81
C     -11.32      22.75      25.56
C     -10.89      22.79      24.21
C     -11.69      23.38      23.21
C     -14.49      23.80      26.66
C      20.11       4.42      25.55
C      19.37       5.60      25.81
C      18.54       6.13      24.83
C      18.45       5.57      23.54
C      19.39       4.56      23.21
C      20.21       3.99      24.20
C      18.12       7.03      26.72
C      25.93       0.33      14.40
C      27.29       0.03      14.14
C      28.07      -0.59      15.12
C      27.57      -0.86      16.41
C      26.31      -0.30      16.75
C      25.50       0.27      15.75
C      29.05      -0.69      13.23
C      -3.84      17.49      16.42
C      -3.93      16.89      15.15
C      -4.71      17.49      14.15
C      -5.48      18.66      14.40
C      -5.59      19.08      15.75
C      -4.77      18.51      16.75
C      -3.45      16.00      13.30
C      16.63      12.72      10.81
C      16.10      11.76       9.92
C      16.92      11.16       8.97
C      18.27      11.55       8.79
C      18.70      12.70       9.50
C      17.90      13.26      10.50
C      15.10      10.07       9.15
C      -9.47      -0.20      29.15
C     -10.20      -1.02      30.04
C     -11.04      -0.43      30.99
C     -11.13       0.97      31.16
C     -10.18       1.76      30.45
C      -9.37       1.18      29.45
C     -11.46      -2.52      30.83
C      -3.65      11.51      31.17
C      -2.30      11.89      31.04
C      -1.52      11.35      30.01
C      -2.02      10.36      29.14
C      -3.28       9.80      29.45
C      -4.09      10.38      30.45
C      -0.53      13.03      30.87
C      25.74      22.10       8.79
C      25.65      23.50       8.91
C      24.87      24.06       9.93
C      24.10      23.26      10.81
C      24.00      21.89      10.50
C      24.81      21.31       9.50
C      26.13      25.55       9.07
C       1.83      29.35       7.48
C       1.30      30.60       7.09
C       2.13      31.72       7.05
C       3.47      31.68       7.47
C       3.91      30.50       8.12
C       3.11      29.34       8.11
C       0.30      32.11       6.01
C       5.32      -0.99      23.36
C       4.59      -1.35      22.20
C       3.76      -2.47      22.23
C       3.67      -3.32      23.36
C       4.60      -3.10      24.40
C       5.41      -1.95      24.40
C       3.34      -1.29      20.50
C      11.14      -8.62      32.47
C      12.50      -8.70      32.87
C      13.27      -7.54      32.91
C      12.78      -6.28      32.49
C      11.52      -6.28      31.84
C      10.70      -7.43      31.85
C      14.26      -9.12      33.94
C      10.95      26.40      16.60
C      10.85      25.58      17.76
C      10.08      24.42      17.73
C       9.32      24.06      16.59
C       9.21      25.02      15.56
C      10.02      26.17      15.56
C      11.34      24.42      19.45
C      -5.50       3.14      23.34
C      -4.77       3.50      22.18
C      -3.93       4.62      22.21
C      -3.85       5.47      23.33
C      -4.79       5.26      24.37
C      -5.59       4.10      24.38
C      -3.51       3.43      20.49
C      27.56      14.65       7.47
C      28.09      13.39       7.08
C      27.26      12.27       7.04
C      25.91      12.33       7.46
C      25.48      13.51       8.10
C      26.29      14.66       8.10
C      29.09      11.87       6.02
C      18.47      17.58      16.62
C      18.57      18.40      17.78
C      19.33      19.56      17.74
C      20.11      19.92      16.62
C      20.22      18.96      15.58
C      19.40      17.82      15.58
C      18.07      19.56      19.46
C     -11.29      10.75      32.49
C     -12.65      10.83      32.88
C     -13.44       9.68      32.91
C     -12.94       8.42      32.50
C     -11.68       8.41      31.86
C     -10.86       9.56      31.86
C     -14.42      11.27      33.94
C      18.28       1.84      14.40
C      16.93       2.13      14.13
C      16.14       2.74      15.11
C      16.63       3.00      16.41
C      17.89       2.45      16.74
C      18.71       1.89      15.75
C      15.16       2.84      13.21
C     -11.12      26.51      16.42
C     -11.02      27.10      15.14
C     -10.24      26.50      14.15
C      -9.48      25.34      14.40
C      -9.37      24.92      15.75
C     -10.18      25.49      16.75
C     -11.50      27.99      13.29
C      -2.01      20.08      23.54
C      -1.48      20.36      24.82
C      -2.32      20.88      25.81
C      -3.67      21.22      25.56
C      -4.09      21.18      24.21
C      -3.28      20.61      23.22
C      -0.49      20.19      26.68
C      24.09      -2.27      25.56
C      24.82      -3.45      25.82
C      25.65      -3.99      24.84
C      25.74      -3.43      23.54
C      24.80      -2.42      23.21
C      23.99      -1.85      24.21
C      26.07      -4.89      26.73
C       3.68      21.88       8.78
C       3.77      20.47       8.91
C       4.54      19.91       9.93
C       5.32      20.70      10.80
C       5.43      22.08      10.49
C       4.61      22.66       9.51
C       3.27      18.43       9.07
C       3.50      -9.37      31.16
C       2.14      -9.74      31.04
C       1.36      -9.20      30.03
C       1.85      -8.21      29.14
C       3.12      -7.65      29.45
C       3.93      -8.22      30.44
C       0.37     -10.88      30.89
C       9.29       2.37      29.16
C      10.03       3.18      30.05
C      10.87       2.59      30.99
C      10.95       1.19      31.16
C      10.00       0.41      30.45
C       9.20       0.98      29.45
C      11.29       4.68      30.82
C      12.77      31.27      10.81
C      13.30      32.23       9.92
C      12.47      32.83       8.97
C      11.12      32.44       8.81
C      10.69      31.29       9.52
C      11.50      30.72      10.51
C      14.30      33.92       9.13
H      -7.79      20.09      28.61
H      -5.80      22.78      26.07
H      -3.94      19.17      27.20
H      -9.20      21.19      26.07
H     -11.04      24.80      27.20
H      -7.20      23.87      28.61
H      16.03       7.45      19.13
H      16.17       3.25      19.04
H      16.34       5.44      15.46
H      18.06       5.90      20.90
H      16.05       5.04      24.49
H      14.04       4.66      20.83
H      30.15      -2.52      20.83
H      26.13      -3.77      20.91
H      28.14      -2.89      24.50
H      28.02      -1.11      19.05
H      27.86      -3.30      15.46
H      28.16      -5.31      19.13
H      -9.16      21.09      11.33
H      -7.30      23.86      13.89
H     -11.31      24.40      12.75
H      -7.66      20.13      13.89
H      -3.65      19.59      12.76
H      -5.79      22.90      11.33
H      21.80      10.23       4.95
H      23.78      11.10       8.55
H      25.64      11.92       4.87
H      20.39      11.89       7.17
H      18.55       9.10       9.74
H      22.39       8.34       8.23
H     -13.55       3.85      35.00
H     -13.39       6.01      31.40
H     -13.23       8.03      35.09
H     -11.52       3.08      32.77
H     -13.52       0.41      30.22
H     -15.53       3.77      31.72
H       0.55       7.37      25.50
H      -3.46       7.93      24.36
H      -1.45       4.38      23.33
H      -1.58       8.20      27.59
H      -1.73      12.41      27.50
H      -1.44      10.24      23.92
H      20.42      24.70      14.45
H      22.29      21.11      15.59
H      18.27      21.82      16.62
H      21.92      22.97      12.35
H      25.94      24.22      12.45
H      23.79      23.79      16.02
H       7.01      35.66       8.25
H       8.99      32.11       7.20
H      10.85      34.89       9.75
H       5.60      32.91       8.57
H       3.76      32.08       4.88
H       7.60      33.77       4.97
H       1.24      -8.09      23.93
H       1.40      -6.05      27.61
H       1.56     -10.25      27.51
H       3.28      -5.77      24.38
H       1.27      -2.23      23.34
H      -0.74      -5.21      25.50
H      15.35      -1.63      31.71
H      11.33      -0.93      32.77
H      13.35       1.74      30.21
H      13.22      -3.87      31.39
H      13.06      -5.88      35.08
H      13.36      -1.70      34.99
H       5.63      20.19      16.02
H       7.50      21.00      12.34
H       3.48      19.76      12.44
H       7.14      22.87      15.57
H      11.15      22.16      16.61
H       9.01      19.28      14.45
H      22.40       2.98      11.34
H      20.42       0.29      13.90
H      18.54       3.87      12.74
H      23.81       1.89      13.90
H      25.68      -1.70      12.74
H      21.82      -0.80      11.34
H      -1.41      15.62      20.83
H      -1.56      19.82      20.90
H      -1.69      17.65      24.50
H      -3.45      17.17      19.06
H      -1.44      18.01      15.46
H       0.57      18.41      19.12
H     -15.53      25.59      19.12
H     -11.51      26.84      19.06
H     -13.51      25.99      15.46
H     -13.40      24.18      20.90
H     -13.28      26.35      24.50
H     -13.55      28.38      20.84
H      23.79       1.97      28.63
H      21.91      -0.79      26.07
H      25.92      -1.36      27.22
H      22.29       2.93      26.06
H      18.28       3.50      27.21
H      20.41       0.18      28.63
H      -7.19      12.84      35.01
H      -9.16      11.97      31.40
H     -11.04      11.17      35.08
H      -5.78      11.17      32.78
H      -3.91      13.96      30.25
H      -7.76      14.73      31.73
H      28.18      19.21       4.96
H      28.01      17.06       8.57
H      27.88      15.03       4.88
H      26.13      19.98       7.18
H      28.14      22.68       9.71
H      30.15      19.31       8.23
H      14.07      15.70      14.47
H      18.09      15.14      15.58
H      16.08      18.67      16.66
H      16.20      14.87      12.36
H      16.32      10.67      12.44
H      16.05      12.82      16.03
H      -5.80      -1.63      25.49
H      -7.68       1.96      24.38
H      -3.67       1.25      23.30
H      -7.29       0.11      27.60
H     -11.30      -1.18      27.53
H      -9.17      -0.74      23.94
H       7.60     -12.60      31.71
H       5.63      -9.03      32.76
H       3.75     -11.82      30.23
H       9.01      -9.84      31.38
H      10.88      -9.04      35.06
H       7.03     -10.71      34.98
H      13.38      31.16      16.02
H      13.22      29.11      12.35
H      13.09      33.32      12.43
H      11.34      28.85      15.57
H      13.34      25.30      16.64
H      15.35      28.28      14.46
H      -0.72      24.69       8.24
H       3.29      24.00       7.19
H       1.28      21.30       9.71
H       1.41      26.93       8.57
H       1.52      28.96       4.89
H       1.25      24.78       4.97
H       8.98       2.89      23.94
H       7.11       2.06      27.61
H      11.11       3.34      27.53
H       7.49       0.19      24.39
H       3.48       0.90      23.32
H       5.61       3.79      25.50
H      -5.25      14.95      28.33
H      -5.27      17.01      27.12
H      -7.03      19.03      33.00
H      17.86       9.52      14.10
H      17.87       7.45      15.30
H      12.71      10.35      17.88
H     -12.89      -0.11      25.86
H      29.53      -0.78      24.66
H     -10.40      -4.69      22.08
H      29.52      21.75      11.63
H     -12.90      22.43      12.83
H     -10.43      21.46       6.95
H      24.34      13.04       0.65
H      24.32      13.06       3.03
H      22.57       6.96       1.84
H       3.07      28.09       3.07
H       3.08      28.08       0.68
H      -2.08      24.41       1.89
H       1.89       1.81      25.07
H      -0.06       3.19      25.08
H       4.38       7.38      23.00
H      14.73      24.11      14.88
H      16.68      22.73      14.87
H      19.15      28.31      16.96
H      24.34      -3.86      12.84
H      24.32      -5.93      11.66
H      22.57      -1.85       6.98
H       3.06     -13.48      24.66
H       3.08     -11.40      25.84
H      -2.09     -10.61      22.06
H      16.69       1.53      27.12
H      14.74       0.82      28.30
H      19.17       0.53      32.98
H      -0.05      20.13      15.30
H       1.90      20.82      14.11
H       4.36      16.22      17.90
H      -3.24      15.64      24.65
H      -3.26      13.56      25.83
H       1.90      12.75      22.04
H      19.87       6.03      12.84
H      19.88       8.10      11.64
H      21.63       4.01       6.98
H     -14.90      23.87      15.30
H      27.53      23.17      14.11
H     -19.32      27.77      17.90
H      27.51       0.62      27.12
H     -14.92       1.32      28.31
H     -19.35       1.59      32.99
H      12.70       2.27      25.87
H      14.65       2.93      24.66
H      10.22       6.84      22.07
H      -0.10      22.23      11.64
H      -2.06      21.56      12.84
H      -4.52      22.54       6.95
H       5.08     -12.82      28.31
H       5.09     -14.89      27.11
H       6.84     -16.89      32.99
H      26.34      -7.38      14.10
H      26.33      -5.32      15.30
H      31.50      -8.19      17.88
H      14.69      19.87      14.89
H      12.74      21.25      14.87
H      10.27      15.67      16.95
H      -2.08       0.35      25.07
H      -0.13      -1.03      25.08
H      -4.56      -5.22      22.99
H      26.34      15.90       3.06
H      26.32      15.91       0.68
H      31.49      19.59       1.87
H       5.08      30.93       0.67
H       5.09      30.93       3.06
H       6.83      37.02       1.84
H     -11.24      23.62      22.33
H      -9.90      22.64      23.98
H     -15.16      24.07      27.38
H      20.67       3.10      23.98
H      19.32       4.06      22.32
H      17.59       7.54      27.43
H      24.51       0.42      15.98
H      25.86      -0.53      17.63
H      29.73      -0.97      12.52
H      -4.70      19.01      17.64
H      -6.06      19.96      15.98
H      -2.93      15.50      12.58
H      18.35      13.91      11.15
H      19.69      12.97       9.48
H      14.42       9.31       9.03
H      -8.91       1.82      28.80
H     -10.25       2.78      30.47
H     -11.98      -3.39      30.90
H      -5.08      10.11      30.46
H      -3.73       9.15      28.80
H       0.15      13.79      30.98
H      24.88      20.29       9.49
H      23.52      21.25      11.14
H      26.65      26.43       9.00
H       3.56      28.45       8.35
H       4.90      30.37       8.36
H      -0.37      32.59       5.41
H       5.88      -1.70      25.28
H       4.53      -3.62      25.27
H       2.81      -0.92      19.71
H       9.71      -7.30      31.61
H      11.06      -5.39      31.60
H      14.94      -9.59      34.54
H      10.09      26.69      14.68
H       8.74      24.78      14.68
H      11.86      24.05      20.24
H      -6.06       3.86      25.26
H      -4.72       5.78      25.25
H      -3.02       3.09      19.66
H      25.85      15.55       8.34
H      24.49      13.64       8.34
H      29.73      11.41       5.38
H      19.33      17.30      14.70
H      20.68      19.20      14.70
H      17.59      19.91      20.29
H      -9.87       9.43      31.62
H     -11.23       7.52      31.61
H     -15.07      11.72      34.58
H      19.70       1.75      15.98
H      18.34       2.69      17.63
H      14.48       3.12      12.50
H     -10.26      24.99      17.64
H      -8.90      24.04      15.98
H     -12.03      28.49      12.57
H      -3.73      20.37      22.33
H      -5.08      21.33      23.98
H       0.18      19.92      27.39
H      23.52      -0.96      23.98
H      24.87      -1.93      22.32
H      26.60      -5.39      27.44
H       4.54      23.68       9.50
H       5.90      22.72      11.14
H       2.79      17.54       8.95
H       4.92      -7.96      30.45
H       3.56      -6.99      28.80
H      -0.28     -11.66      30.96
H       8.73       0.34      28.80
H      10.08      -0.62      30.46
H      11.78       5.56      30.95
H      11.06      30.06      11.16
H       9.70      31.02       9.50
H      14.94      34.71       9.06
N      -6.57      19.14      30.97
N      14.16       8.89      17.58
N     -12.26      -3.82      22.39
N     -10.48      21.92       8.97
N      23.02       8.66       2.95
N      -0.63      25.40       0.78
N       2.52       6.67      23.60
N      19.11      26.33      16.35
N      23.03      -3.65       7.90
N      -0.64     -10.14      23.47
N      17.32       0.37      32.07
N       4.32      17.73      16.48
N       0.45      12.29      23.46
N      21.18       5.82       7.89
N     -19.28      26.26      16.48
N     -17.50       1.78      32.07
N      12.08       5.96      22.38
N      -4.48      22.07       8.98
N       6.38     -17.00      30.97
N      30.05      -6.74      17.58
N      10.32      17.65      16.35
N      -2.71      -4.52      23.60
N      30.04      18.59       0.76
N       6.38      35.33       2.96
N     -13.31      23.24      26.97
N      17.73       7.00      25.44
N      29.16      -1.06      14.51
N      -4.35      16.94      12.99
N      16.28      10.09       8.51
N     -11.84      -1.40      31.44
N      -0.43      12.11      29.91
N      25.22      25.34      10.03
N       1.48      32.65       6.34
N       2.95      -2.38      21.17
N      14.37      -7.82      33.62
N      10.43      23.69      18.78
N      -3.13       4.53      21.15
N      27.90      11.34       6.33
N      18.99      20.29      18.80
N     -14.52       9.97      33.62
N      15.05       3.20      14.50
N     -10.60      27.05      12.99
N      -1.68      20.74      26.98
N      26.46      -4.86      25.45
N       4.19      18.63      10.02
N       0.27      -9.96      29.92
N      11.67       3.55      31.45
N      13.11      33.91       8.52
O      -6.55      17.17      32.13
O      14.15      10.87      16.44
O     -10.39      -3.17      23.53
O      32.04      21.27       7.82
O      23.04       8.64       0.66
O      -0.65      25.40       3.06
O       4.39       5.36      23.59
O      17.25      27.65      16.36
O      23.04      -1.67       9.02
O      -0.66     -12.12      22.33
O      19.19       1.03      30.94
O       2.46      17.07      17.63
O       0.48      14.27      22.33
O      21.18       3.84       9.02
O     -17.42      26.93      17.62
O      25.01       1.11      30.94
O      10.21       5.33      23.52
O      -2.62      22.72       7.82
O       6.38     -15.03      32.12
O      30.06      -8.72      16.43
O      12.17      16.33      16.37
O      -4.58      -3.21      23.59
O      30.06      18.59       3.05
O       6.38      35.33       0.68
O     -14.64      24.13      25.35
O      19.08       6.11      27.04
O      27.87      -0.08      12.91
O      -3.07      15.99      14.61
O      14.95      11.04      10.10
O     -10.50      -2.34      29.86
O      -1.71      13.00      31.57
O      26.51      24.43       8.39
O       0.15      30.80       6.38
O       4.29      -0.54      21.15
O      13.08      -9.71      33.57
O      11.72      25.57      18.81
O      -4.48       2.70      21.12
O      29.24      13.18       6.37
O      17.71      18.40      18.84
O     -13.23      11.84      33.59
O      16.35       2.23      12.90
O     -11.89      28.01      14.60
O      -0.33      19.86      25.36
O      25.12      -3.96      27.05
O       2.91      19.55       8.38
O       1.56     -10.87      31.56
O      10.32       4.50      29.88
O      14.44      32.96      10.09
