34

H       7.30       6.23       9.38
H      11.02       3.92       5.52
H       8.10       5.11       4.05
H       9.55       4.14       3.59
H       7.89       3.53       3.21
H       9.01       2.39       5.20
H       7.42       3.02       5.53
H       6.85       8.03      10.65
H       8.48       8.75      11.06
H       7.25       8.55      12.30
H       9.79       7.05      13.50
H      10.44       8.25      12.27
H      11.50       7.55      13.51
H      12.74       7.79      11.14
H      11.52       8.47       9.96
H      13.26       8.38       9.57
C       8.32       5.94       9.51
C       8.92       6.31      10.70
C      10.31       6.21      10.81
C      11.05       6.00       9.62
C      10.46       5.29       8.51
C       9.01       5.28       8.48
C       9.06       4.16       6.42
C      10.48       4.25       6.39
C       8.44       3.34       5.30
C       8.50       4.08       3.96
C       7.66       8.08      11.40
C      10.64       7.32      12.84
C      12.44       7.85      10.08
N       8.31       4.69       7.46
N      11.19       4.69       7.46
O       8.14       6.79      11.74
O      11.00       6.23      12.02
O      12.32       6.55       9.52
