40

H       5.06       6.39      11.75
H       4.59       2.18      11.35
H       4.35       0.75      13.29
H       4.49       1.44      18.01
H       4.85       5.67      18.49
H       4.78       7.12      16.58
H       2.21       0.64      16.33
H       2.67      -1.09      16.34
H       2.49      -0.25      14.76
H       5.98       8.84      15.76
H       7.06       8.07      14.55
H       6.25       9.65      14.19
H       4.96       8.05      12.98
H       4.00       8.43      14.40
C       4.84       5.34      13.65
C       4.44       1.62      13.94
C       4.38       1.45      15.32
C       4.54       2.57      16.16
C       4.67       3.86      15.61
C       4.75       4.99      16.45
C       4.79       6.27      15.91
C       4.87       6.48      14.52
C       4.57       2.42      17.56
C       4.72       3.54      18.37
C       4.73       3.40      19.81
C       4.78       4.82      17.83
C       4.86       4.44      10.00
C       4.93       5.45      12.25
C       4.84       4.31      11.44
C       4.67       3.05      12.00
C       4.61       2.90      13.38
C       4.70       4.04      14.21
C       2.83      -0.13      15.81
C       4.93       7.93      14.07
C       6.13       8.66      14.68
O       3.58       3.38      20.42
O       5.89       3.38      20.42
O       3.70       4.49       9.38
O       6.02       4.49       9.38
O       4.20       0.19      15.86
