11

Cd       0.99       1.83       3.49
C       1.98       4.60       4.71
O       2.45       0.10       4.23
O      -0.61       0.40       4.21
N       0.95       1.70       1.23
N       0.91       3.86       4.41
C       1.92       1.25       0.36
C      -0.15       1.92       0.51
C       3.52       0.78       4.00
C      -1.72       0.99       3.89
C      -0.21       4.57       4.83
