20

H       5.66      13.55       4.92
H       3.36      12.81       6.42
H       2.28      11.57       4.12
H       3.53       9.13       4.85
H       5.83       9.88       3.35
H       6.92      11.12       5.65
C       4.64      10.22       7.48
C       3.92      12.15       5.72
C       5.18      12.56       4.91
C       4.59      11.86       3.67
C       3.33      11.47       4.47
C       4.02      10.13       4.86
C       5.27      10.54       4.05
C       5.87      11.22       5.30
C       4.61      10.82       6.10
C       4.55      12.46       2.29
O       5.81      10.06       8.02
O       3.52       9.90       8.06
O       5.68      12.77       1.71
O       3.39      12.62       1.75
