20

H       2.51       9.05      14.68
H       0.12       8.69      16.21
C       1.20       8.16      12.05
C       2.30       6.71      15.04
C       1.59       6.15      13.80
C       1.13       7.57      13.42
C       1.86       8.15      14.67
C       0.56       7.95      15.51
C      -0.15       7.38      14.26
C       0.31       5.96      14.63
C       1.02       6.52      15.87
C       0.96       5.91      17.25
O       0.08       8.47      11.47
O       2.37       8.31      11.51
O       2.07       5.60      17.82
O      -0.22       5.76      17.78
F       3.58       6.36      15.44
F      -1.42       7.71      13.84
F      -0.49       4.83      14.60
F       2.12       5.23      12.92
