30

H       1.32      14.72       6.05
H       1.38      15.86       8.17
H       1.16      20.28       5.94
H       1.03      18.14       0.25
H       1.14      20.32       3.87
H       1.05      20.26       1.47
H       1.23      14.74       3.64
H       2.36      18.31      10.14
H       1.39      16.95      10.19
C       1.33      20.49       8.52
C       1.33      16.82       7.66
C       1.27      19.23       7.77
C       1.08      18.13       1.33
C       1.09      19.33       2.02
C       1.14      19.35       3.41
C       1.18      18.14       4.16
C       1.18      16.91       3.44
C       1.22      18.12       5.59
C       1.27      16.87       6.26
C       1.28      15.68       5.54
C       1.23      15.69       4.15
C       1.21      19.29       6.37
C       1.35      17.99       8.43
C       1.13      16.92       2.02
C       1.08      15.67       1.25
N       1.42      17.94       9.86
O       0.21      21.08       8.79
O       2.50      20.93       8.84
O       2.20      15.08       0.98
O      -0.09      15.23       0.92
