16

O       1.43      -0.46      13.01
H       2.71       0.82      11.11
C       6.15       0.16      12.80
C       6.10       0.61      11.48
H       7.02       0.74      10.92
C       4.97      -0.01      13.53
H       4.82       1.24       9.85
C       4.86       0.88      10.88
O       8.52      -0.23      12.74
C       2.48      -0.10      13.66
C       3.73       0.21      12.92
O       7.47      -0.48      14.69
O       2.47      -0.02      14.94
C       3.68       0.65      11.58
H       5.02      -0.36      14.56
C       7.45      -0.21      13.45
