156

Zn       0.00      26.60      14.43
Zn       8.19      21.88       7.74
Zn       9.47       0.74       1.05
Zn      -8.19      21.88       7.74
Zn       4.09      14.78       7.74
Zn      13.57       7.83       1.05
Zn       5.38      12.56       7.74
Zn      -4.09      19.51      14.43
Zn       5.38       7.83       1.05
Zn      13.57      12.56       7.74
Zn       4.09      19.51      14.43
Zn      -4.09      14.78       7.74
H      -2.79      12.55       0.09
H      -2.15       6.48       3.61
H       2.79      15.03       3.61
H       2.15       9.69       8.16
H       0.00      13.42       8.16
H      -4.94      11.30       3.61
H       4.94      11.30       3.61
H       0.00       7.72       0.09
H       2.15       6.48       3.61
H      -2.15       9.69       8.16
H       2.79      12.55       0.09
H      -2.79      15.03       3.61
H      14.41      16.04      11.87
H       9.47      19.62      15.38
H       9.47      13.92       7.31
H       4.53      16.04      11.87
H       6.69      12.31      11.87
H      12.26      14.80      15.38
H       7.32      17.65       7.31
H      11.62      20.87      11.87
H       7.32      20.87      11.87
H       6.69      14.80      15.38
H      11.62      17.65       7.31
H      12.26      12.31      11.87
C      -1.79      14.86       1.09
C      -2.71      13.90       1.77
C       0.00       5.98       5.19
C       0.00       6.41       3.75
C       1.79      14.86       1.09
C       2.71      13.90       1.77
C       0.00       8.04       8.10
C       0.00       9.54       8.18
C       2.51      12.39       8.11
C       1.21      11.64       8.18
C      -4.29      10.52       1.09
C      -3.92      11.80       1.77
C       4.29      13.42       5.19
C       3.92      13.20       3.75
C      -2.51       7.43       1.09
C      -1.21       7.11       1.77
C       2.51       7.43       1.09
C       1.21       7.11       1.77
C      -2.51      12.39       8.11
C      -1.21      11.64       8.18
C       4.29      10.52       1.09
C       3.92      11.80       1.77
C      -4.29      13.42       5.19
C      -3.92      13.20       3.75
C      13.76      13.93      10.29
C      13.39      14.14      11.72
C       6.96      19.92      14.38
C       8.26      20.23      13.70
C      11.98      14.96       7.37
C      10.69      15.71       7.30
C       5.18      16.82      14.38
C       5.55      15.54      13.70
C       5.18      13.93      10.29
C       5.55      14.14      11.72
C      13.76      16.82      14.38
C      13.39      15.54      13.70
C       6.96      14.96       7.37
C       8.26      15.71       7.30
C      11.98      19.92      14.38
C      10.69      20.23      13.70
C       9.47      21.36      10.29
C       9.47      20.94      11.72
C       7.69      12.48      14.38
C       6.76      13.44      13.70
C       9.47      19.30       7.37
C       9.47      17.81       7.30
C      11.26      12.48      14.38
C      12.18      13.44      13.70
C      -3.11      12.74       1.11
C      -1.21       6.64       3.09
C       3.11      14.14       3.09
C       1.21      10.24       8.18
C       0.00      12.34       8.18
C      -4.33      12.04       3.09
C       4.33      12.04       3.09
C       0.00       7.34       1.11
C       1.21       6.64       3.09
C      -1.21      10.24       8.18
C       3.11      12.74       1.11
C      -3.11      14.14       3.09
C      13.80      15.31      12.38
C       9.47      20.00      14.36
C       9.47      15.01       7.30
C       5.15      15.31      12.38
C       6.36      13.21      12.38
C      12.59      14.61      14.36
C       8.26      17.11       7.30
C      10.68      20.70      12.38
C       8.26      20.70      12.38
C       6.36      14.61      14.36
C      10.68      17.11       7.30
C      12.59      13.21      12.38
O      -1.42      25.51      15.38
O      17.80       5.83       5.75
O       1.42      15.89       1.76
O       1.14       7.46       8.06
O       2.44      13.66       8.06
O      13.95       9.69       1.76
O       5.00      12.51       5.75
O      -2.44      18.83      15.38
O       3.58       7.23       1.76
O      15.36      11.69       8.06
O       3.86      21.28      15.38
O      -3.86      14.48       5.75
O      -4.48      14.84       9.73
O       7.03       8.51       0.10
O      11.91      13.68       7.41
O       4.47      17.66      13.71
O       5.62      12.86       9.73
O      13.33       6.06       0.10
O       5.89      15.66       7.41
O      -5.89      20.11      13.71
O       8.33      21.52       9.73
O       8.06       1.83       0.10
O      -8.33      19.88       7.41
O      10.89      11.45      13.71
O      10.89       1.83       0.10
O      -8.33      21.52       9.73
O       8.06      11.45      13.71
O       8.33      19.88       7.41
O       7.03      13.68       7.41
O      -4.47      17.66      13.71
O       4.48      14.84       9.73
O      11.91       8.51       0.10
O       5.89      20.11      13.71
O      -5.89      15.66       7.41
O       5.62       6.06       0.10
O      13.33      12.86       9.73
O      13.95      12.51       5.75
O       2.44      18.83      15.38
O      -2.44      13.66       8.06
O       5.00       9.69       1.76
O       3.86      14.48       5.75
O      -3.86      21.28      15.38
O       3.58      11.69       8.06
O      15.36       7.23       1.76
O       1.14       5.83       5.75
O       1.42      25.51      15.38
O      17.80       7.46       8.06
O      -1.42      15.89       1.76
