576

Pr       3.63      10.02      13.16
Pr       5.27       6.04      14.27
Pr       3.94       1.91      13.73
Pr       0.95      22.55       1.00
Pr       8.48      18.56      28.20
Pr       0.64      14.44       0.42
Pr       5.53      15.03      15.15
Pr       3.89      19.02      14.05
Pr       5.23      23.14      14.58
Pr       8.21       2.50      27.31
Pr       0.69       6.49       0.11
Pr       8.52      10.61      27.89
Cu       1.54       9.45      21.02
Cu       0.22       9.44      23.21
Cu       2.59       8.25      23.06
Cu       0.56       7.05      22.06
Cu      -1.82       5.12      19.15
Cu       7.31       7.47       7.16
Cu      -3.99       3.67      19.21
Cu      -1.91       2.65      20.39
Cu       2.13       0.98      21.44
Cu      11.21      11.54       9.46
Cu      10.59      12.12      18.85
Cu      -2.43      11.11      20.15
Cu      -2.88      21.98      21.45
Cu      -1.57      21.97      19.26
Cu      -3.94      20.78      19.41
Cu      -1.91      19.57      20.41
Cu       0.47      17.64      23.32
Cu      12.37      20.00       7.00
Cu       2.65      16.20      23.26
Cu       0.56      15.18      22.08
Cu      -3.48      13.50      21.03
Cu       8.46      24.06       4.70
Cu       3.16      24.65      23.62
Cu       1.08      23.64      22.32
Cu       7.63      15.60       7.30
Cu       8.94      15.61       5.10
Cu       6.58      16.80       5.26
Cu       8.61      18.01       6.25
Cu      10.98      19.94       9.16
Cu       1.86      17.58      21.16
Cu      13.16      21.38       9.11
Cu      11.08      22.40       7.92
Cu       7.03      24.08       6.87
Cu      -2.05      13.52      18.85
Cu      -1.43      12.93       9.46
Cu      11.59      13.94       8.16
Cu      12.05       3.08       6.86
Cu      10.74       3.09       9.05
Cu      13.10       4.27       8.90
Cu      11.07       5.48       7.90
Cu       8.69       7.41       5.00
Cu      -3.20       5.05      21.31
Cu       6.52       8.86       5.05
Cu       8.60       9.88       6.23
Cu      12.65      11.55       7.28
Cu       0.70       0.99      23.61
Cu       6.01       0.41       4.69
Cu       8.09       1.41       5.99
H       0.64       9.69      18.26
H       1.28      10.64      16.25
H       4.21      12.61      18.22
H       3.48      11.63      20.18
H      -1.78       7.49      17.22
H      -0.30       8.42      15.70
H       2.58       5.98      17.16
H       1.01       5.10      18.62
H       7.97      12.79      17.45
H       6.31      11.74      16.23
H       8.15       8.21      16.97
H       9.80       9.37      18.11
H       8.34      11.66       9.99
H       6.64      10.51      11.06
H       9.35       7.71      12.14
H      10.97       8.94      11.04
H      -1.01       6.93       9.67
H       0.77       7.90      10.80
H       2.54       4.29      10.93
H       0.70       3.41       9.85
H       4.25       3.00      20.74
H       5.08       4.11      18.90
H       1.95       2.71      16.77
H       1.22       1.59      18.66
H       8.24       6.43       9.80
H       7.50       5.06      11.52
H       4.32       4.09       9.23
H       5.11       5.52       7.61
H      -1.74      23.94      17.02
H      -0.33       0.04      15.59
H       2.82      23.61      17.64
H       1.32      22.53      19.05
H       0.71      20.62      10.23
H       2.43      21.56      11.43
H       0.57       0.05      11.20
H      -1.19      24.04      10.15
H      -1.98      22.22      24.21
H      -2.63      23.16      26.22
H       9.54       0.08      24.25
H      10.27      24.16      22.29
H       0.43      20.01      25.25
H      -1.05      20.95      26.77
H      -3.93      18.50      25.31
H      -2.36      17.63      23.85
H       5.77       0.26      25.01
H       7.43      24.26      26.24
H       5.59      20.74      25.50
H       3.95      21.90      24.35
H      11.34      24.18       4.17
H      13.04      23.04       3.09
H      10.33      20.24       2.02
H       8.71      21.47       3.12
H       5.59      19.46       4.48
H       3.82      20.43       3.36
H       2.04      16.82       3.23
H       3.88      15.94       4.31
H       9.50      15.53      21.73
H       8.67      16.64      23.57
H      -3.30      15.23      25.70
H      -2.57      14.11      23.81
H      11.44      18.95       4.36
H      12.18      17.58       2.64
H       0.26      16.62       4.93
H      -0.53      18.05       6.55
H       0.39      11.41      25.45
H      -1.02      12.57      26.88
H      -4.17      11.08      24.83
H      -2.67      10.00      23.42
H       3.87       8.10       3.92
H       2.15       9.03       2.73
H       4.01      12.57       2.96
H       5.77      11.51       4.01
H       8.53      15.36      10.05
H       7.88      14.42      12.07
H       4.95      12.44      10.09
H       5.69      13.42       8.13
H      10.94      17.57      11.10
H       9.46      16.63      12.62
H       6.59      19.08      11.16
H       8.15      19.95       9.69
H       1.19      12.26      10.86
H       2.85      13.32      12.09
H       1.01      16.84      11.34
H      -0.63      15.68      10.20
H       0.83      13.40      18.33
H       2.53      14.54      17.25
H      -0.19      17.34      16.17
H      -1.81      16.11      17.28
H      10.17      18.12      18.64
H       8.40      17.15      17.52
H       6.62      20.76      17.38
H       8.46      21.64      18.47
H       4.92      22.05       7.58
H       4.09      20.94       9.41
H       7.22      22.34      11.55
H       7.95      23.47       9.65
H       0.92      18.63      18.52
H       1.66      19.99      16.80
H       4.84      20.96      19.08
H       4.05      19.53      20.70
H      10.90       1.12      11.30
H       9.49      25.01      12.73
H       6.35       1.45      10.67
H       7.85       2.53       9.26
H       8.46       4.43      18.08
H       6.73       3.49      16.88
H       8.59      25.01      17.11
H      10.36       1.01      18.17
H      11.15       2.83       4.10
H      11.80       1.89       2.09
H      -0.37      24.97       4.06
H      -1.10       0.89       6.02
H       8.74       5.04       3.06
H      10.22       4.11       1.54
H      13.09       6.55       3.00
H      11.53       7.43       4.46
H       3.39      24.79       3.30
H       1.73       0.79       2.07
H       3.57       4.31       2.81
H       5.21       3.15       3.96
H      -2.18       0.87      24.14
H      -3.88       2.01      25.22
H      -1.16       4.81      26.29
H       0.46       3.59      25.19
H       3.57       5.59      23.83
H       5.35       4.62      24.95
H       7.12       8.23      25.08
H       5.28       9.12      24.00
H      -0.33       9.53       6.58
H       0.49       8.41       4.75
H      12.46       9.82       2.61
H      11.73      10.94       4.51
H      -2.27       6.10      23.95
H      -3.01       7.47      25.67
H       8.90       8.44      23.39
H       9.70       7.00      21.76
H       8.78      13.64       2.86
H      10.19      12.49       1.43
H      13.33      13.97       3.49
H      11.83      15.05       4.89
H       5.29      16.96      24.39
H       7.02      16.02      25.59
H       5.16      12.48      25.36
H       3.39      13.54      24.30
C       1.38      10.28      18.25
C       1.76      10.84      17.04
C       2.86      11.68      17.01
C       3.48      12.00      18.20
C       3.04      11.41      19.37
C       3.33      12.27      15.70
C      -0.89       7.16      17.18
C      -0.01       7.73      16.28
C       1.30       7.27      16.24
C       1.68       6.29      17.13
C       0.74       5.77      18.00
C       2.30       7.81      15.25
C       8.02      11.85      17.33
C       7.02      11.23      16.61
C       7.07       9.85      16.44
C       8.11       9.16      17.04
C       9.08       9.86      17.73
C       6.00       9.13      15.64
C       8.55      10.85      10.44
C       7.52      10.17      11.07
C       7.81       8.99      11.72
C       9.12       8.53      11.70
C      10.08       9.27      11.05
C       6.72       8.20      12.43
C      -0.30       6.38       9.97
C       0.75       6.96      10.64
C       1.80       6.17      11.07
C       1.80       4.85      10.72
C       0.70       4.33      10.07
C       2.89       6.78      11.92
C       3.79       2.92      19.91
C       4.29       3.59      18.83
C       3.62       3.48      17.61
C       2.45       2.76      17.57
C       2.02       2.10      18.71
C       4.15       4.20      16.39
C       7.41       5.97       9.69
C       6.98       5.16      10.73
C       5.78       4.49      10.59
C       5.11       4.59       9.39
C       5.60       5.43       8.42
C       5.20       3.66      11.70
C      -0.80      23.86      17.14
C       0.03      24.55      16.28
C       1.41      24.42      16.44
C       1.88      23.68      17.49
C       0.98      23.03      18.32
C       2.32       0.10      15.50
C       0.67      21.55      10.45
C       1.71      22.10      11.15
C       1.71      23.43      11.44
C       0.61      24.16      11.03
C      -0.42      23.53      10.38
C       2.80      24.07      12.25
C      -2.73      22.81      24.22
C      -3.11      23.36      25.43
C      -4.21      24.20      25.46
C      -4.83      24.52      24.27
C      -4.39      23.94      23.10
C      -4.68      24.80      26.77
C      -0.46      19.69      25.29
C      -1.34      20.25      26.19
C      -2.65      19.79      26.23
C      -3.03      18.81      25.33
C      -2.09      18.30      24.47
C      -3.65      20.34      27.22
C       5.72      24.38      25.14
C       6.73      23.76      25.86
C       6.68      22.38      26.03
C       5.64      21.68      25.43
C       4.67      22.39      24.74
C       7.75      21.66      26.83
C      11.13      23.38       3.71
C      12.15      22.70       3.08
C      11.87      21.51       2.43
C      10.56      21.05       2.45
C       9.60      21.80       3.11
C      12.95      20.72       1.72
C       4.88      18.91       4.18
C       3.83      19.49       3.52
C       2.79      18.70       3.09
C       2.79      17.37       3.43
C       3.88      16.86       4.09
C       1.69      19.31       2.23
C       9.96      15.45      22.56
C       9.46      16.12      23.64
C      -4.97      16.01      24.86
C      -3.80      15.28      24.90
C      -3.37      14.63      23.76
C       9.59      16.73      26.08
C      12.26      18.49       4.46
C      12.70      17.68       3.43
C      13.90      17.01       3.57
C      -0.53      17.12       4.77
C      -1.02      17.96       5.74
C      14.48      16.18       2.45
C      -0.55      11.33      25.33
C      -1.38      12.02      26.19
C      -2.75      11.89      26.02
C      -3.23      11.15      24.98
C      -2.33      10.51      24.15
C      -3.67      12.63      26.97
C       3.92       9.02       3.71
C       2.87       9.58       3.01
C       2.87      10.91       2.72
C       3.97      11.64       3.13
C       5.00      11.01       3.77
C       1.78      11.54       1.91
C       7.78      14.77      10.07
C       7.40      14.22      11.27
C       6.30      13.38      11.31
C       5.68      13.06      10.11
C       6.13      13.64       8.95
C       5.83      12.78      12.61
C      10.05      17.89      11.13
C       9.17      17.33      12.03
C       7.86      17.79      12.08
C       7.48      18.76      11.18
C       8.42      19.28      10.31
C       6.86      17.24      13.07
C       1.14      13.20      10.98
C       2.14      13.82      11.71
C       2.10      15.20      11.87
C       1.06      15.90      11.28
C       0.09      15.19      10.59
C       3.17      15.92      12.67
C       0.62      14.20      17.87
C       1.64      14.88      17.24
C       1.36      16.07      16.59
C       0.05      16.53      16.61
C      -0.92      15.78      17.26
C       2.44      16.86      15.88
C       9.46      18.67      18.34
C       8.41      18.09      17.68
C       7.37      18.88      17.24
C       7.37      20.21      17.59
C       8.46      20.72      18.24
C       6.28      18.27      16.39
C       5.38      22.13       8.40
C       4.88      21.46       9.49
C       5.54      21.57      10.70
C       6.71      22.29      10.74
C       7.15      22.95       9.60
C       5.01      20.85      11.92
C       1.75      19.09      18.62
C       2.18      19.90      17.59
C       3.38      20.57      17.73
C       4.05      20.46      18.93
C       3.56      19.62      19.89
C       3.96      21.40      16.61
C       9.96       1.19      11.17
C       9.13       0.51      12.04
C       7.76       0.63      11.87
C       7.28       1.37      10.83
C       8.18       2.02       9.99
C       6.84      24.95      12.81
C       8.50       3.50      17.87
C       7.45       2.95      17.17
C       7.45       1.62      16.88
C       8.55       0.89      17.28
C       9.59       1.52      17.93
C       6.36       0.98      16.06
C      11.89       2.24       4.09
C      12.28       1.69       2.88
C      13.37       0.85       2.85
C      14.00       0.53       4.05
C      13.55       1.11       5.21
C      13.84       0.26       1.54
C       9.63       5.37       3.03
C      10.51       4.80       2.12
C      11.82       5.26       2.08
C      12.19       6.24       2.98
C      11.25       6.76       3.84
C      12.81       4.72       1.09
C       3.44       0.68       3.18
C       2.44       1.30       2.45
C       2.48       2.67       2.28
C       3.53       3.37       2.88
C       4.50       2.67       3.57
C       1.42       3.39       1.49
C      -1.96       1.68      24.60
C      -2.99       2.36      25.23
C      -2.70       3.54      25.88
C      -1.39       4.00      25.86
C      -0.43       3.26      25.21
C      -3.79       4.33      26.59
C       4.28       6.15      24.13
C       5.34       5.56      24.79
C       6.38       6.35      25.23
C       6.38       7.68      24.88
C       5.28       8.19      24.23
C       7.47       5.75      26.08
C      -0.80       9.61       5.76
C      -0.30       8.94       4.67
C      14.13       9.04       3.45
C      12.96       9.77       3.41
C      12.53      10.43       4.56
C      -0.43       8.32       2.23
C      -3.10       6.56      23.85
C      -3.53       7.37      24.88
C      -4.73       8.04      24.74
C       9.69       7.93      23.54
C      10.18       7.09      22.58
C      -5.31       8.87      25.86
C       9.72      13.72       2.98
C      10.54      13.03       2.12
C      11.92      13.16       2.29
C      12.39      13.90       3.33
C      11.49      14.55       4.16
C      12.84      12.42       1.35
C       5.25      16.03      24.60
C       6.29      15.48      25.30
C       6.29      14.15      25.59
C       5.20      13.42      25.19
C       4.16      14.04      24.54
C       7.39      13.51      26.41
I       2.53      10.84      23.11
I      -1.11       8.90      20.93
I       0.64       7.22      24.72
I       2.78       7.04      20.68
I      -0.55       4.72      21.51
I      10.93       6.29      19.03
I       6.32       9.94       7.50
I      -1.85       2.71      17.78
I      -0.49       0.53      21.22
I       3.07       2.22      23.66
I      11.47      13.90      10.79
I       3.42      23.66      21.14
I      -3.88      23.37      19.36
I      -0.24      21.42      21.54
I      -1.99      19.75      17.75
I      -4.13      19.57      21.79
I      -0.80      17.25      20.95
I       2.82      18.81      23.44
I      13.36      22.46       6.65
I       0.50      15.23      24.69
I      -0.86      13.06      21.25
I      10.68      14.75      18.81
I       8.21       1.37       3.37
I      10.32      11.14      21.33
I       6.63      14.21       5.21
I      10.27      16.15       7.38
I       8.52      17.83       3.59
I       6.39      18.01       7.63
I       9.71      20.33       6.80
I      -1.76      18.77       9.29
I       2.84      15.12      20.81
I      11.01      22.35      10.53
I       9.65      24.52       7.09
I       6.09      22.83       4.65
I      -2.31      11.15      17.53
I       5.74       1.39       7.17
I      13.05       1.68       8.95
I       9.41       3.63       6.78
I      11.15       5.31      10.56
I      13.29       5.48       6.52
I       9.96       7.81       7.36
I       6.34       6.24       4.87
I      -4.19       2.59      21.66
I       8.67       9.82       3.62
I      10.03      12.00       7.06
I      -1.51      10.31       9.51
I       0.96      23.68      24.94
I      -1.16      13.92       6.99
N       2.00      10.55      19.40
N      -0.53       6.16      18.02
N       9.05      11.19      17.87
N       9.83      10.43      10.44
N      -0.36       5.06       9.74
N       2.68       2.16      19.88
N       6.74       6.14       8.56
N      -0.34      23.09      18.14
N      -0.39      22.23      10.06
N      -3.35      23.07      23.07
N      -0.81      18.69      24.45
N       4.69      23.71      24.60
N       9.85      22.96       3.72
N       4.94      17.58       4.41
N      -4.03      14.68      22.59
N      12.94      18.67       5.59
N      -1.01      10.57      24.33
N       4.97       9.70       4.09
N       7.16      14.51       8.91
N       9.70      18.89      10.30
N       0.11      13.86      10.44
N      -0.66      14.62      17.87
N       9.52      19.99      18.57
N       6.49      22.90       8.43
N       2.43      18.91      19.75
N       9.50       1.96      10.17
N       9.55       2.83      18.25
N      12.52       1.98       5.25
N       9.98       6.37       3.86
N       4.47       1.34       3.72
N      -0.69       2.09      24.59
N       4.23       7.47      23.90
N      13.19      10.37       5.73
N      -3.78       6.39      22.72
N      10.17      14.49       3.98
N       4.20      15.35      24.22
O       2.88      11.78      14.64
O       4.13      13.24      15.78
O       2.06       8.90      14.71
O       3.32       7.10      15.03
O       5.08       9.82      15.15
O       6.14       7.88      15.54
O       5.59       8.69      12.53
O       7.03       7.09      12.90
O       2.79       7.99      12.16
O       3.78       6.00      12.35
O       5.00       5.10      16.57
O       3.72       3.90      15.24
O       5.58       3.89      12.90
O       4.37       2.77      11.43
O       1.90       1.14      14.98
O       3.48      24.70      15.29
O       3.61      23.27      12.80
O       2.81       0.26      12.36
O      -4.23      24.31      27.83
O      -5.48       0.71      26.69
O      -3.40      21.42      27.76
O      -4.67      19.63      27.44
O       8.66      22.35      27.32
O       7.61      20.41      26.93
O      14.09      21.22       1.62
O      12.64      19.61       1.26
O       1.79      20.52       2.00
O       0.80      18.53       1.80
O       8.75      17.63      25.90
O      -5.06      16.43      27.23
O      14.10      16.42       1.25
O       0.21      15.30       2.73
O      -3.25      13.67      27.48
O      -4.83      12.18      27.17
O       0.97      10.74       1.36
O       1.77      12.78       1.79
O       6.28      13.27      13.67
O       5.03      11.82      12.54
O       7.11      16.16      13.60
O       5.84      17.95      13.28
O       4.08      15.23      13.16
O       3.03      17.17      12.77
O       3.58      16.36      15.78
O       2.13      17.97      15.41
O       6.37      17.06      16.15
O       5.38      19.05      15.96
O       4.17      19.95      11.74
O       5.45      21.15      13.08
O       3.59      21.16      15.41
O       4.79      22.28      16.89
O       7.26      23.91      13.33
O       5.68       0.35      13.02
O       5.55       1.78      15.52
O       6.36      24.80      15.95
O      13.39       0.75       0.48
O      14.64      24.34       1.62
O      12.57       3.63       0.56
O      13.83       5.43       0.87
O       0.50       2.71       0.99
O       1.56       4.64       1.39
O      -4.93       3.83      26.69
O      -3.48       5.44      27.06
O       7.38       4.54      26.31
O       8.36       6.52      26.51
O       0.42       7.42       2.41
O      14.23       8.63       1.08
O      -4.94       8.64      27.06
O       8.96       9.75      25.58
O      12.42      11.38       0.83
O      13.99      12.88       1.14
O       8.20      14.31      26.95
O       7.39      12.27      26.52
