336

C      -7.18      12.73      84.18
C       7.08      11.62      84.11
C       6.78      10.78      85.22
C       7.43      11.10      86.44
C      -6.84      12.20      86.57
C      -6.59      12.99      85.44
C       0.67       0.45      83.04
C      -7.03      13.09      81.71
C       0.80       0.79      80.59
C       1.22       2.12      80.81
C       1.40       2.65      82.11
C       1.09       1.80      83.19
C       1.89       3.98      82.27
C       0.72       0.26      79.27
C      -6.30      12.55      87.84
C       5.89       9.67      85.16
C       7.11      13.04      23.59
C      14.15       1.25      23.53
C      13.58       1.92      24.64
C      13.53       1.20      25.86
C       6.47      13.01      25.99
C       7.03      12.40      24.85
C       7.69      12.39      22.46
C       7.35      12.74      21.13
C       7.92      12.11      20.01
C      -6.28      11.08      20.23
C      -5.91      10.66      21.53
C      -6.50      11.35      22.61
C      -5.00       9.57      21.69
C       7.51      12.44      18.69
C       6.50      12.36      27.26
C      13.06       3.25      24.58
C       0.23       0.51      53.88
C       1.64       0.30      53.81
C       2.51       0.46      54.92
C       1.91       0.87      56.14
C       0.52       1.08      56.27
C      -0.29       0.90      55.14
C      14.52       0.33      52.75
C      -0.15       0.46      51.42
C      14.16       0.27      50.29
C       5.22      13.09      50.52
C       4.67      12.98      51.81
C      13.14       0.02      52.90
C       3.27      12.73      51.97
C      14.65       0.47      48.97
C      -0.05       1.38      57.54
C       3.92       0.25      54.86
C       0.58       0.27      37.23
C      -0.33       1.36      37.33
C      -0.82       2.09      36.21
C      -0.36       1.67      34.93
C       0.53       0.58      34.77
C      -6.59      13.03      35.91
C      -6.50      12.69      38.37
C       1.09       0.15      39.67
C      -6.01      12.59      40.80
C      -5.52      11.28      40.65
C      -5.49      10.63      39.39
C      -5.99      11.36      38.29
C      -4.99       9.29      39.29
C       1.46       0.04      42.10
C       0.91       0.16      33.47
C      -1.70       3.21      36.31
C      14.69       0.35       6.93
C       6.62      12.13       7.03
C       6.23      11.34       5.91
C       6.36      11.95       4.64
C      14.44       0.14       4.47
C      -0.35       0.88       5.62
C      -0.10       1.12       8.08
C      14.54       0.84       9.37
C      -0.25       1.59      10.51
C       0.64       2.67      10.35
C       1.19       3.03       9.10
C       0.80       2.22       7.99
C       2.09       4.12       8.99
C      -0.69       1.22      11.80
C      14.61       0.69       3.17
C       5.71      10.02       6.01
C       7.56      12.54      67.52
C      -6.19      12.78      67.62
C      -5.31      12.85      66.50
C      -5.90      12.66      65.23
C       7.86      12.44      65.06
C       7.05      12.38      66.21
C       6.71      12.46      68.67
C       7.21      12.16      69.96
C       6.38      12.09      71.09
C       5.00      12.32      70.94
C       4.42      12.62      69.68
C       5.30      12.69      68.58
C       3.01      12.85      69.58
C       6.93      11.89      72.39
C       7.30      12.31      63.76
C      -3.90      13.05      66.60
C       1.26       1.05      89.62
C       2.02       0.53       0.96
C       0.99       1.35       1.49
C       0.32       1.95      90.16
C      -4.66      12.82       1.79
C       7.90      11.56      29.04
C       7.07      11.18      31.27
C       8.31      11.63      31.79
C      -5.99      11.89      29.58
C       5.90      10.84      32.10
C      13.70       0.56      59.33
C      13.78       1.47      61.55
C      13.54       0.18      62.08
C       5.77      12.43      59.87
C      -1.07       2.66      62.39
C       2.99       5.71      83.61
C       3.67       7.86      82.72
C       4.38       8.16      83.92
C       3.65       6.05      84.81
C       3.60       8.75      81.54
C      -4.06       7.74      23.03
C      -2.53       6.09      22.14
C      -2.63       5.32      23.34
C      11.05       7.01      24.23
C      -1.72       5.71      20.96
C       1.22      12.83      53.31
C      -0.98      12.34      52.43
C      -1.59      12.81      53.62
C       8.18       0.11      54.52
C      -1.71      11.83      51.25
C      -4.15       7.41      37.96
C      11.70       5.30      38.91
C      12.21       4.87      37.64
C      -3.70       6.96      36.70
C      11.76       4.50      40.15
C       3.30       5.79       7.66
C       4.78       7.46       8.61
C       4.89       8.11       7.35
C       3.46       6.41       6.40
C       5.44       7.91       9.85
C       0.96      13.06      68.25
C       6.36       0.40      69.20
C       5.73       0.17      67.94
C       0.34      12.90      66.99
C       5.63       0.74      70.44
C      -7.18      13.06      74.17
C       0.11       1.65      75.84
C       0.35       0.69      76.87
C      -6.93      12.12      75.19
C      -0.18       3.08      76.07
C       7.38      12.85      13.59
C      -6.15      12.25      15.26
C      -7.09      12.53      16.29
C       6.44      13.11      14.61
C      -4.76      11.79      15.49
C      -0.07       0.38      43.88
C       6.18      12.39      45.54
C       6.89      13.06      46.58
C       0.62       1.07      44.90
C       5.09      11.41      45.77
H       6.60      11.45      83.23
H       1.69       0.61      85.53
H       7.22      10.56      87.28
H       7.87      12.11      81.54
H       1.49       2.68      80.00
H       1.07       2.21      84.13
H      -0.90       1.75      22.65
H       7.31      11.42      24.94
H      13.16       1.65      26.70
H      14.19       0.32      20.96
H      -5.93      10.56      19.42
H      -6.13      11.16      23.55
H      -5.55      13.09      52.94
H      13.87       1.14      55.23
H       2.49       0.97      56.98
H       0.81       0.74      51.25
H       4.60      13.04      49.70
H       5.22      12.92      53.83
H      -0.68       1.60      38.25
H      -5.88      12.31      35.78
H      -0.70       2.14      34.09
H       0.80       1.12      39.80
H      -5.19      10.78      41.48
H      -6.12      10.86      37.41
H       6.59      11.71       7.95
H      -0.08       1.85       5.48
H       6.13      11.42       3.80
H      13.85       0.10       9.50
H       0.91       3.20      11.19
H       1.30       2.37       7.11
H      -5.80      12.97      68.54
H       6.07      12.12      66.07
H      -5.33      12.72      64.38
H       8.19      11.93      70.09
H       4.41      12.28      71.78
H       4.93      13.05      67.70
H      -0.35       2.43      89.57
H      -3.97      12.23       1.18
H      -5.25      12.13       2.40
H       3.51       0.34       2.45
H       1.35       1.33       3.46
H       0.85       1.40      87.70
H      -5.22      12.22      28.98
H       5.04      10.57      31.49
H       5.62      11.70      32.72
H       6.14      10.00      32.75
H       8.13      11.32      33.76
H      -6.74      11.75      27.11
H       5.68      11.60      59.28
H      -0.87       3.54      61.77
H      -0.19       2.47      63.00
H      13.23       2.87      63.03
H      13.37       0.50      64.05
H      13.62       0.02      57.41
H       3.69       5.39      85.60
H       2.98       8.32      80.75
H       4.60       8.92      81.14
H       3.15       9.71      81.83
H       5.15       9.89      83.32
H       2.46       3.89      84.19
H      10.46       7.30      25.02
H      -1.79       6.45      20.17
H      -2.07       4.75      20.56
H      -0.67       5.61      21.25
H      -1.52       3.78      22.74
H       9.78       9.12      23.61
H       8.73       0.47      55.30
H      -1.03      11.51      50.46
H      -2.36      12.61      50.85
H      -2.32      10.97      51.53
H      -3.48      12.61      53.03
H      10.64       0.16      53.90
H      -3.75       7.55      35.87
H      11.29       5.02      40.98
H      -2.35       4.30      40.41
H      11.24       3.55      40.00
H      13.02       3.16      38.26
H      -4.72       9.20      37.30
H       2.98       6.07       5.57
H       5.23       7.24      10.68
H       5.10       8.91      10.12
H       6.53       7.93       9.70
H       5.97       9.66       7.96
H       2.03       4.41       7.00
H       0.88      12.66      66.16
H       6.32       0.89      71.28
H      -2.63      13.06      70.70
H       5.07       1.67      70.30
H       3.85       0.33      68.55
H       2.79      12.67      67.59
H       8.42      11.14      74.97
H      -0.30       3.62      75.13
H       0.63       3.54      76.63
H      -1.11       3.18      76.64
H      -0.04       1.90      78.43
H       0.61       0.33      72.24
H      13.07       0.32      14.39
H      -4.23      11.61      14.55
H      -4.77      10.85      16.05
H      -4.21      12.54      16.05
H      -5.84      12.27      17.84
H       7.60      12.47      11.66
H       1.37       1.73      44.68
H       4.68      11.04      44.83
H       4.28      11.88      46.33
H       5.47      10.56      46.33
H       6.04      12.12      48.13
H      14.63       0.39      41.95
N       2.08       0.40      90.49
N       0.19       2.03       0.63
N       0.63       1.30       2.81
N       1.23       0.72      88.29
N       6.92      11.20      29.92
N      -5.85      11.96      30.92
N      -6.69      11.97      33.11
N       7.64      11.76      27.71
N      13.88       1.59      60.20
N       5.76      12.27      61.22
N       6.18      13.01      63.40
N      14.01       0.68      58.00
N       3.04       6.66      82.63
N       4.32       7.22      84.90
N       5.14       9.29      84.08
N       2.41       4.49      83.43
N      -3.25       7.23      22.06
N      11.73       5.84      24.32
N      -2.03       4.09      23.50
N      -4.82       8.86      22.85
N       0.38      12.39      52.34
N       6.83       0.11      54.60
N      -2.95      12.90      53.78
N       2.57      12.93      53.14
N      11.14       6.54      38.99
N      -3.10       5.74      36.61
N      12.89       3.70      37.46
N      -4.66       8.67      38.11
N       3.99       6.35       8.69
N       4.22       7.53       6.31
N       5.57       9.29       7.17
N       2.47       4.72       7.82
N       7.71       0.26      69.28
N      -1.00      13.00      66.90
N       4.37       0.17      67.76
N       2.31      12.88      68.40
N       0.15       1.22      74.55
N      -6.96      12.53      76.48
N       0.32       1.03      78.21
N      -7.27      12.76      72.85
N      -6.54      12.43      13.97
N       6.82      12.94      15.90
N      -6.78      12.40      17.63
N       7.16      13.08      12.27
N       6.53      12.64      44.25
N       0.28       0.82      46.18
N       6.61      12.87      47.91
N       0.25       0.46      42.56
O       1.94       4.76      81.16
O      -6.02      11.53      88.69
O       5.78       8.91      86.28
O      -6.43      12.10      79.09
O      -4.35       9.14      20.58
O       5.47      12.63      28.10
O      12.45       3.73      25.70
O       6.19      12.70      18.51
O       2.58      12.38      50.86
O       0.69       2.13      58.39
O       4.64       0.54      55.98
O       0.40       1.48      48.79
O      -4.73       8.63      40.45
O       1.08       1.13      32.53
O      -2.01       3.86      35.15
O      -5.09      12.92      42.96
O       2.54       4.67      10.15
O      13.69       0.35       2.24
O       5.30       9.43       4.86
O      -1.00       2.22      12.66
O       2.31      12.96      70.74
O       8.06      11.68      62.82
O      -3.19      13.00      65.45
O       6.21      11.13      73.25
