14

C       8.44      24.82       5.20
C       4.84      24.47       7.75
O       7.34      24.98       4.56
O       8.62      25.05       6.44
Zn       7.38      26.10       7.59
O       4.73      24.12       6.52
Zn       5.56      25.30       5.23
O       5.74      25.25       8.21
O       7.89      28.09       7.40
O       8.23      26.95       9.27
C       8.35      28.04       8.60
C       4.50      27.35       4.61
O       4.58      26.34       3.81
O       4.99      27.28       5.79
