14

O       7.32      15.65      18.30
O       8.55      15.64      20.21
O       5.73      15.37      21.99
O       4.72      16.52      20.31
Zn       7.38      14.53      21.36
Zn       5.55      15.34      19.01
O       7.89      12.53      21.18
O       8.28      13.70      23.03
O       4.51      14.30      17.63
O       4.99      13.35      19.59
C       8.37      12.60      22.37
C       4.83      16.16      21.53
C       8.40      15.84      18.96
C       4.46      13.28      18.43
