14

C      18.31       2.64       6.06
C      21.89       2.26       8.61
Zn      20.84       0.98       6.22
O      20.79       2.10       9.26
O      22.07       2.04       7.37
Zn      19.01       1.79       8.58
C      17.94      -0.26       9.19
O      19.24       1.90       5.59
O      18.17       2.97       7.30
O      21.33      -1.01       6.38
O      21.68       0.14       4.52
O      18.02       0.74      10.00
O      18.44      -0.20       8.02
C      21.79      -0.95       5.19
