16

C       4.43      -3.34      12.18
O       4.72      -2.46      13.08
O       4.77      -3.13      10.96
O       4.09      -4.58      14.84
C       1.53      -8.29      13.05
H       2.74      -6.81      14.86
C       2.41      -6.46      11.48
C       2.27      -7.03      12.78
C       3.11      -5.25      11.35
H       3.22      -4.82      10.36
O       1.24      -9.16      12.14
O       1.19      -8.50      14.26
C       3.55      -5.17      13.74
C       3.69      -4.60      12.45
C       2.85      -6.37      13.87
O       1.87      -7.04      10.38
