36

C       8.83       9.07       2.71
C       7.95       6.76      -2.37
H       6.61       8.84      -1.32
H       9.74       6.72       1.90
H       6.79      13.48       0.70
H       4.95      13.34       2.37
H       4.19      11.13       3.19
H       5.27       9.06       2.38
H       7.88      11.41      -0.12
H      11.22       6.91      -1.65
H      12.77       5.09      -2.28
H       8.88       4.10       0.64
H      10.45       2.29       0.01
H      12.39       2.78      -1.45
C       8.29       8.28       1.61
C       7.39       8.87       0.70
C       7.31       8.39      -0.62
C       8.14       7.34      -1.04
C       8.99       6.71      -0.11
C       9.01       7.15       1.22
C       9.91       5.62      -0.52
C      11.04       5.90      -1.30
C      11.92       4.87      -1.65
C      11.71       3.57      -1.18
C      10.61       3.30      -0.36
C       9.71       4.32      -0.02
C       6.64      10.09       1.07
C       7.06      11.35       0.59
C       6.45      12.51       1.06
C       5.42      12.44       2.00
C       4.98      11.19       2.46
C       5.59      10.02       2.00
O       8.12       9.27       3.81
O      10.13       9.31       2.70
O       6.81       6.17      -2.65
O       8.93       6.76      -3.25
