36

C      10.93      14.76       7.60
C      15.36      18.43       7.65
H      12.93      18.80       8.78
H      13.33      14.41       6.48
H       8.30      19.54       9.41
H       7.58      18.05      11.26
H       8.94      16.06      11.84
H      10.99      15.54      10.57
H      10.32      19.01       8.10
H      15.30      17.91       4.85
H      17.29      17.47       3.46
H      15.83      14.08       6.77
H      17.74      13.62       5.28
H      18.52      15.34       3.68
O      10.66      13.74       8.43
O      10.22      14.95       6.51
C      12.00      16.88       8.43
C      12.13      15.62       7.80
C      14.15      17.59       7.47
C      14.27      16.33       6.83
C      13.26      15.35       7.01
C      15.43      16.04       5.94
C      15.84      16.98       4.97
C      13.01      17.85       8.25
C      17.65      15.53       4.30
C      16.96      16.73       4.18
C      17.23      14.57       5.22
C      16.13      14.83       6.05
C      10.79      17.22       9.22
C      10.02      18.35       8.90
C       8.88      18.65       9.64
C       8.48      17.82      10.69
C       9.24      16.70      11.02
C      10.40      16.40      10.30
O      16.24      18.02       8.49
O      15.38      19.69       7.24
