360

C       0.44      16.37       4.22
C       1.16      17.25       3.34
C       2.42      16.82       2.77
C       3.06      15.81       3.53
C       2.33      14.78       4.17
C       0.98      15.08       4.51
C       0.60      18.55       3.20
C       0.16      14.16       5.19
C      20.83      16.77       4.84
C      20.38      18.13       4.79
C      19.24      18.54       5.54
C      18.51      17.53       6.22
C      18.98      16.21       6.42
C      20.08      15.82       5.62
C      21.13      19.00       3.96
C      20.48      14.47       5.58
C       7.61       7.41       5.03
C       8.33       6.21       4.70
C       9.59       5.94       5.35
C      10.23       7.10       5.87
C       9.49       8.17       6.44
C       8.14       8.30       6.01
C       7.79       5.45       3.64
C       7.31       9.35       6.48
C       6.37       7.74       4.38
C       5.93       7.02       3.22
C       4.79       7.47       2.48
C       4.06       8.56       3.02
C       4.53       9.38       4.07
C       5.63       8.88       4.81
C       6.69       5.88       2.87
C       6.01       9.51       6.01
C      14.84      12.59      12.40
C      15.57      12.91      13.60
C      16.82      13.64      13.50
C      17.45      13.47      12.24
C      16.72      13.44      11.03
C      15.37      12.99      11.13
C      15.02      12.36      14.79
C      14.54      12.87       9.99
C      13.60      11.84      12.43
C      13.17      11.20      13.63
C      12.02      10.33      13.61
C      11.30      10.25      12.39
C      11.76      10.76      11.16
C      12.86      11.65      11.23
C      13.92      11.47      14.80
C      13.25      12.38      10.08
C       0.32      -4.69      17.45
C       1.04      -5.57      18.33
C       2.30      -5.14      18.90
C       2.94      -4.12      18.14
C       2.20      -3.08      17.51
C       0.85      -3.39      17.18
C       0.50      -6.88      18.46
C       0.02      -2.47      16.50
C      20.71      -5.09      16.83
C      20.27      -6.45      16.88
C      19.12      -6.87      16.13
C      18.40      -5.86      15.44
C      18.86      -4.54      15.25
C      19.96      -4.15      16.06
C      21.01      -7.33      17.70
C      20.35      -2.80      16.11
C       7.55       4.29      16.65
C       8.27       5.49      16.96
C       9.53       5.77      16.30
C      10.17       4.60      15.81
C       9.44       3.53      15.23
C       8.09       3.39      15.67
C       7.72       6.26      18.01
C       7.27       2.34      15.21
C       6.32       3.95      17.30
C       5.87       4.67      18.45
C       4.73       4.23      19.19
C       4.00       3.13      18.65
C       4.47       2.30      17.61
C       5.57       2.80      16.87
C       6.62       5.83      18.79
C       5.97       2.16      15.68
C      14.75      -0.89       9.29
C      15.48      -1.21       8.09
C      16.74      -1.91       8.18
C      17.37      -1.77       9.44
C      16.64      -1.74      10.65
C      15.29      -1.30      10.55
C      14.93      -0.67       6.90
C      14.47      -1.17      11.70
C      13.51      -0.17       9.26
C      13.07       0.47       8.06
C      11.92       1.33       8.08
C      11.20       1.41       9.29
C      11.66       0.92      10.53
C      12.77       0.02      10.46
C      13.83       0.21       6.89
C      13.16      -0.69      11.61
C       3.06      17.04       1.44
C       3.26      18.23       0.67
C       3.80       5.67      21.12
C       4.40       4.50      20.58
C       4.36       3.37      21.43
C       3.62      15.89       0.81
C       3.35       8.00      20.89
C       2.91      20.61       0.45
C       2.60      23.08       0.56
C      10.22       4.67       5.84
C      10.41       3.41       5.20
C      11.01       2.28       5.86
C      11.61       2.40       7.15
C      11.57       3.70       7.70
C      10.76       4.70       7.16
C      10.57       0.91       3.96
C      10.06       2.02       3.26
C       9.75       0.87       1.06
C      17.48      14.66      14.36
C      17.67      14.75      15.78
C      18.14      -9.24      16.42
C      18.78      -8.22      15.67
C      18.92      16.72      14.27
C      18.08      15.77      13.68
C      17.65     -10.17      18.56
C      17.26      13.80      17.95
C      16.93      12.47      20.04
C       2.94      -5.36      20.23
C       3.13      -6.54      21.01
C       3.84       6.02       0.57
C       4.46       7.19       1.09
C       4.42       8.32       0.24
C       3.50      -4.20      20.86
C       3.37       3.70       0.82
C       2.75      -8.91      21.26
C       2.43     -11.38      21.16
C      10.19       7.03      15.83
C      10.40       8.29      16.47
C      11.05       9.40      15.82
C      11.68       9.27      14.55
C      11.62       7.97      14.00
C      10.76       6.99      14.52
C      10.60      10.78      17.72
C      10.03       9.68      18.40
C       9.72      10.83      20.60
C      17.36      -2.96       7.32
C      17.55      -3.04       5.90
C      18.33      20.93       5.26
C      18.92      19.88       6.01
C      18.90      20.05       7.41
C      17.91      -4.09       8.01
C      17.88      21.90       3.12
C      17.20      -2.05       3.74
C      16.90      -0.71       1.65
C      18.46      15.45       7.56
C      19.27      14.70       8.45
C      18.69      13.89       9.48
C      17.32      14.02       9.84
C      16.58      14.97       9.08
C      17.09      15.54       7.91
C      20.87      13.00       9.98
C      21.47      13.91       9.09
C       2.21      13.34       9.71
C       4.02      10.75       4.15
C       4.85      11.90       4.36
C       4.29      13.19       4.54
C       2.92      13.45       4.25
C       2.17      12.33       3.80
C       2.66      11.02       3.89
C       6.47      14.06       5.06
C       7.06      12.82       4.72
C       9.44      13.61       4.91
C      11.23      10.16       9.93
C      12.04       9.77       8.82
C      11.47       9.29       7.61
C      10.09       8.91       7.55
C       9.36       9.09       8.75
C       9.86       9.81       9.83
C      13.64       9.30       6.58
C      14.24       9.62       7.81
C      16.61       9.37       7.01
C      18.35      -3.78      14.12
C      19.18      -3.02      13.23
C      18.61      -2.21      12.20
C      17.24      -2.33      11.84
C      16.49      -3.29      12.58
C      16.99      -3.87      13.75
C      20.79      -1.32      11.71
C      21.38      -2.24      12.60
C       2.13      -1.68      12.01
C       3.94       0.94      17.52
C       4.75      -0.22      17.31
C       4.18      -1.51      17.13
C       2.80      -1.76      17.42
C       2.07      -0.63      17.86
C       2.57       0.68      17.78
C       6.35      -2.40      16.60
C       6.95      -1.17      16.94
C       9.32      -1.99      16.75
C      11.15       1.52      11.75
C      11.97       1.92      12.85
C      11.40       2.41      14.06
C      10.03       2.79      14.13
C       9.29       2.62      12.94
C       9.78       1.88      11.85
C      13.58       2.40      15.08
C      14.18       2.08      13.84
C      16.55       2.33      14.63
H       4.03      15.60       3.30
H      17.71      17.83       6.79
H      20.85      19.98       3.87
H       1.08      19.25       2.66
H      19.93      13.74       6.03
H       0.49      13.24       5.48
H      11.20       7.00       6.16
H       3.26       8.90       2.48
H       6.42       5.33       2.05
H       8.28       4.65       3.27
H       5.46      10.27       6.41
H       7.64      10.06       7.13
H      18.43      13.76      12.19
H      10.49       9.62      12.37
H      13.65      11.05      15.69
H      15.51      12.46      15.66
H      12.69      12.35       9.22
H      14.87      13.08       9.05
H       3.91      -3.92      18.37
H      17.60      -6.16      14.88
H      20.74      -8.31      17.78
H       0.98      -7.59      18.98
H      19.80      -2.06      15.67
H       0.35      -1.55      16.22
H      11.14       4.69      15.52
H       3.20       2.80      19.19
H       6.34       6.39      19.59
H       8.19       7.09      18.35
H       5.41       1.41      15.28
H       7.60       1.63      14.56
H      18.35      -2.07       9.49
H      10.39       2.04       9.31
H      13.56       0.64       6.00
H      15.42      -0.75       6.02
H      12.61      -0.67      12.47
H      14.80      -1.38      12.63
H       3.41       8.84      20.30
H       3.46      14.95       1.19
H       4.74       2.47      21.11
H       1.38      21.59       1.26
H       3.67      23.27       0.42
H       2.22      23.82       1.26
H       1.99      10.63      21.36
H      10.62      -0.02       3.53
H      10.60       5.51       7.77
H      11.94       3.87       8.65
H       8.55       2.24       1.98
H      10.82       0.64       0.98
H       9.38       1.11       0.06
H       9.21       0.00       1.44
H      17.71     -10.08      19.58
H      17.93      15.91      12.67
H      19.14      -7.68      13.65
H      15.70      12.67      18.42
H      18.00      12.47      20.27
H      16.51      11.51      20.34
H      16.26     -11.85      20.62
H       3.43       2.87       1.41
H       3.35      -3.27      20.47
H       4.80       9.22       0.55
H       1.21      -9.89      20.47
H       3.49     -11.58      21.30
H       2.21      12.99      20.47
H       2.00       1.08       0.37
H      10.67      11.71      18.14
H      10.60       6.19      13.90
H      12.00       7.78      13.07
H       8.48       9.52      19.63
H      10.79      11.03      20.71
H       9.31      10.61      21.58
H       9.22      11.72      20.21
H      17.93      21.81       2.11
H      17.76      -4.22       9.01
H      19.27      19.32       8.03
H      15.69      -0.83       3.29
H      17.96      -0.76       1.40
H      16.52       0.27       1.36
H      16.54      23.63       1.08
H      21.41      12.35      10.55
H      16.44      16.10       7.35
H      15.63      15.23       9.36
H       1.42      13.78       7.88
H       2.07      13.62      10.75
H       3.23      13.63       9.42
H       2.12      12.26       9.61
H       7.02      14.86       5.34
H       2.00      10.27       3.69
H       1.22      12.45       3.43
H       8.62      11.82       5.45
H       9.30      14.37       4.14
H      10.44      13.20       4.81
H       9.34      14.07       5.89
H      14.18       9.14       5.73
H       9.21      10.02      10.60
H       8.41       8.72       8.83
H      15.81      10.75       8.30
H      16.47       8.32       6.74
H      17.62       9.48       7.41
H      16.51      10.00       6.12
H      21.34      -0.68      11.15
H      16.33      -4.42      14.31
H      15.54      -3.54      12.30
H       1.32      -2.11      13.83
H       1.99      -1.96      10.96
H       3.14      -1.97      12.31
H       2.04      -0.59      12.11
H       6.89      -3.21      16.32
H       1.92       1.44      17.98
H       1.12      -0.73      18.23
H       8.52      -0.19      16.21
H       9.18      -2.75      17.52
H      10.33      -1.59      16.85
H       9.22      -2.44      15.76
H      14.13       2.57      15.92
H       9.13       1.67      11.10
H       8.34       2.98      12.85
H      15.75       0.95      13.35
H      16.41       3.37      14.90
H      17.56       2.22      14.23
H      16.46       1.70      15.52
N       3.82       6.83      20.41
N       2.85      19.44       1.13
N       2.39      21.73       1.13
N      11.03       1.08       5.22
N      10.01       3.20       3.92
N       9.55       2.04       1.93
N      18.16      -9.19      17.78
N      17.22      13.78      16.60
N      16.71      12.67      18.60
N       3.86       4.87       1.28
N       2.70      -7.74      20.57
N       2.22     -10.04      20.59
N      11.09      10.60      16.47
N       9.97       8.51      17.73
N       9.49       9.68      19.71
N      18.35      20.89       3.90
N      17.15      -2.04       5.09
N      16.69      -0.89       3.10
N      19.52      13.05      10.15
N      20.63      14.69       8.37
N       1.24      14.05       8.85
N       5.13      14.19       4.93
N       6.21      11.81       4.40
N       8.45      12.52       4.73
N      12.30       9.13       6.54
N      13.40       9.85       8.86
N      15.63       9.77       8.05
N      19.45      -1.37      11.53
N      20.54      -3.02      13.32
N       1.15      -2.38      12.86
N       5.00      -2.52      16.73
N       6.12      -0.15      17.26
N       8.34      -0.89      16.93
N      12.24       2.57      15.13
N      13.33       1.84      12.81
N      15.57       1.93      13.59
