37

H       1.45       1.50       8.44
H       0.82      -0.41      12.20
H       0.72      -0.23      14.27
H       1.76       5.23      13.98
H       0.73       7.82      10.77
H       0.92       6.86       9.22
H      -0.72       7.15       9.92
H      -0.03       4.89      10.36
H      -0.25       5.84      11.87
H       2.21       6.25      12.03
H       2.53       5.36      10.54
H       1.89       3.59       9.50
H       0.40       2.41      17.57
H       0.31       0.15      16.61
C       1.10      -0.86       9.63
C       1.64       2.76      10.15
C       1.09       0.44      10.28
C       0.64       2.27      16.52
C       0.58       0.99      15.98
C       0.81       0.79      14.62
C       1.14       1.87      13.77
C       1.29       3.15      14.35
C       1.26       1.73      12.35
C       1.59       2.88      11.55
C       1.79       4.13      12.18
C       1.66       4.24      13.55
C       1.03       0.51      11.67
C       1.38       1.56       9.52
C       1.00       3.35      15.72
C       0.94       4.71      16.30
C       1.83       5.41      11.40
C       0.39       5.71      10.97
C       0.34       6.97      10.16
O      -0.04      -1.46       9.41
O       2.29      -1.31       9.34
O      -0.26       5.20      16.51
O       2.07       5.35      16.44
