37

H       4.99       5.57       8.79
H       4.36       7.47       5.03
H       4.26       7.29       2.96
H       5.30       1.84       3.25
H       4.27      -0.75       6.46
H       4.46       0.21       8.01
H       2.82      -0.09       7.31
H       3.51       2.18       6.87
H       3.29       1.23       5.36
H       5.75       0.82       5.21
H       6.07       1.71       6.69
H       5.42       3.48       7.73
H       3.94       4.66      -0.34
H       3.85       6.92       0.62
C       4.64       7.93       7.60
C       5.18       4.31       7.08
C       4.63       6.63       6.95
C       4.18       4.80       0.71
C       4.11       6.08       1.25
C       4.35       6.28       2.61
C       4.68       5.20       3.47
C       4.83       3.91       2.88
C       4.80       5.33       4.89
C       5.12       4.19       5.68
C       5.33       2.94       5.05
C       5.20       2.83       3.68
C       4.57       6.56       5.56
C       4.92       5.51       7.71
C       4.54       3.71       1.51
C       4.48       2.36       0.93
C       5.37       1.66       5.83
C       3.93       1.35       6.26
C       3.88       0.09       7.07
O       3.49       8.52       7.82
O       5.83       8.37       7.89
O       3.28       1.87       0.72
O       5.61       1.72       0.79
