24

H       3.76       6.25      11.87
H       5.35       3.48      17.03
H       9.59       4.24      16.71
H       7.71       7.03      10.46
N       5.29       5.75      13.17
N       5.97       4.50      15.36
H       9.13       5.42      14.60
H       8.61       6.01      12.57
O       6.76       2.41      18.91
O       8.96       2.75      18.67
O       5.77       8.04       9.08
O       3.86       6.88       9.50
C       7.51       3.73      17.05
C       6.63       5.66      13.39
C       4.84       6.23      12.01
C       6.22       3.89      16.52
C       8.58       4.32      16.35
C       7.05       6.65      11.23
C       8.31       4.98      15.15
C       7.00       5.06      14.65
C       7.75       2.95      18.27
C       7.54       6.11      12.41
C       5.03       7.23       9.77
C       5.67       6.70      11.01
