24

H      -0.08       0.53       9.70
H       3.09       0.11       4.54
H       3.99      -4.10       4.86
H       0.69      -3.42      11.11
H       2.72      -4.13       6.97
H       1.97      -3.87       9.00
N       2.37      -0.86       6.21
N       0.96      -0.70       8.40
O       4.63      -0.79       2.67
O       5.11      -2.96       2.90
O      -0.98      -2.00      12.50
O      -0.62       0.20      12.08
C       3.67      -1.98       4.53
C       1.55      -1.91       8.18
C       0.35      -0.46       9.56
C       3.03      -0.85       5.05
C       3.52      -3.20       5.23
C       0.79      -2.67      10.34
C       2.82      -3.20       6.42
C       2.25      -2.02       6.92
C       4.48      -1.90       3.31
C       1.48      -2.92       9.16
C      -0.51      -1.02      11.80
C       0.22      -1.41      10.56
