24

C      10.73      -0.11      11.71
C      11.60      -2.04      15.37
C      13.40      -2.60      16.75
C      12.02      -0.27      12.24
C       9.66      -0.70      12.42
C      11.18      -3.03      17.53
C       9.92      -1.35      13.61
C      11.23      -1.43      14.11
C      10.49       0.67      10.50
C      10.69      -2.48      16.35
C      13.20      -3.61      18.99
C      12.56      -3.08      17.75
N      12.26      -0.88      13.40
N      12.95      -2.13      15.59
H      14.47      -2.62      16.89
H      12.88       0.14      11.73
H       8.64      -0.61      12.05
H      10.52      -3.41      18.30
H       9.11      -1.79      14.16
H       9.63      -2.38      16.19
O      11.47       1.22       9.85
O       9.28       0.87      10.09
O      12.47      -4.40      19.69
O      14.38      -3.25      19.26
