13

N      -4.65      -1.38      13.29
N      -7.02      -0.89      11.20
N      -7.33       0.05      14.35
N      -5.27       1.73      12.30
C      -4.22       2.43      12.78
C      -3.77      -1.36      14.37
Zn      -6.06      -0.06      12.79
C      -7.56      -0.93      15.25
C      -6.50      -1.01       9.91
C      -8.16       1.10      14.73
C      -8.28      -1.37      11.12
C      -5.92       2.60      11.44
C      -4.45      -2.58      12.70
