13

C      22.17       7.08       2.25
C      21.16       6.84       0.33
N      22.95       9.87      -1.28
N      24.38       9.92       1.58
N      21.26      10.96       1.23
N      21.96       7.69       1.02
C      20.34      10.92       2.28
Zn      22.60       9.57       0.66
C      21.09      12.17       0.65
C      24.73      10.93       2.41
C      22.06       9.85      -2.35
C      25.50       9.09       1.53
C      24.13      10.27      -1.80
