13

C     -13.37       6.90      24.66
C     -15.79       3.39      24.69
Zn     -13.41       4.27      26.28
C     -11.91       6.87      26.28
N     -12.97       4.11      28.23
N     -12.22       2.90      25.36
N     -12.87       6.12      25.71
N     -15.36       3.87      25.92
C     -11.17       3.11      24.53
C     -12.04       3.29      28.75
C     -16.49       4.14      26.61
C     -13.43       4.87      29.29
C     -12.37       1.51      25.41
