13

Zn      -9.06      17.29       4.20
C      -7.55      14.69       4.21
C      -8.86      19.31       6.55
C      -6.26      18.31       3.51
C     -11.17      15.94       2.41
C     -11.36      18.11       2.34
C      -8.86      14.75       5.95
C     -10.86      18.50       6.26
C      -7.62      18.30       1.80
N      -7.57      18.05       3.12
N     -10.61      17.08       2.89
N      -8.46      15.47       4.83
N      -9.57      18.51       5.72
