13

C      -2.48      24.02       2.35
Zn      -3.00      24.35      -0.66
C      -4.86      26.63      -1.53
C       0.01      24.34      -0.66
C      -0.70      23.07      -2.28
N      -2.91      24.80       1.28
N      -3.58      26.06      -1.58
N      -1.13      23.89      -1.23
N      -4.31      22.86      -1.02
C      -2.88      26.87      -2.41
C      -4.94      22.73      -2.25
C      -3.15      26.02       1.81
C      -4.65      21.74      -0.33
