13

C       8.88      19.30       6.56
Zn       9.08      17.28       4.20
C       7.57      14.68       4.22
N       7.59      18.05       3.13
N      10.62      17.07       2.90
N       8.48      15.47       4.83
N       9.60      18.50       5.73
C       6.28      18.31       3.51
C      11.37      18.11       2.35
C       8.89      14.74       5.95
C      11.18      15.93       2.41
C       7.64      18.30       1.80
C      10.88      18.48       6.27
