13

C       7.63      -4.41      17.86
C      10.87      -0.27      19.53
C       8.87      -0.27      20.39
Zn       9.07      -1.81      17.70
C       6.27      -2.80      18.44
C       7.56      -0.93      15.25
C      11.37      -3.84      17.86
C       8.87       0.69      15.89
C      11.17      -3.05      15.84
N       7.58      -3.08      18.06
N      10.62      -2.97      17.07
N       8.47      -0.61      16.20
N       9.59      -0.78      19.36
