13

C      -7.62       0.74      25.14
C      -8.87      -0.26      20.38
Zn      -9.07       1.76      22.74
N     -10.61       1.98      24.05
N      -7.58       0.99      23.82
N      -9.59       0.54      21.21
N      -8.47       3.57      22.11
C     -11.36       0.94      24.59
C      -6.26       0.73      23.44
C      -8.87       4.30      20.99
C     -11.17       3.11      24.53
C     -10.87       0.56      20.68
C      -7.56       4.36      22.73
