13

C      11.84      -1.97       6.56
N      13.58      -2.47       3.13
N      12.91       0.65       2.90
N      15.37      -0.40       4.83
N      12.18      -0.95       5.73
C      16.50      -0.79       4.21
C      14.01      -3.74       3.51
Zn      13.50      -0.79       4.21
C      11.63       0.79       2.35
C      15.79       0.31       5.96
C      11.55       0.17       6.27
C      13.34      -2.56       1.81
C      13.61       1.70       2.41
