13

C       3.78       5.05      23.44
C       6.51       9.37      24.60
C       4.21       7.80      20.39
C       8.17       5.52      20.99
N       4.66       6.06      23.82
N       7.02       8.19      24.05
N       7.33       5.53      22.11
Zn       6.07       6.96      22.74
N       5.26       8.02      21.22
C       7.56       4.35      22.73
C       5.92       9.13      20.68
C       8.29       8.11      24.54
C       4.47       6.22      25.14
