13

C      -3.05      21.63      12.58
C      -4.45      21.62      14.26
Zn      -3.07      24.27      14.16
C      -4.11      24.17      17.04
C      -5.32      25.53      15.84
C      -4.57      25.13      11.69
C      -3.11      26.67      12.21
C      -0.70      25.48      15.51
N      -3.51      22.39      13.66
N      -4.26      24.68      15.75
N      -3.61      25.42      12.60
N      -1.13      24.47      14.65
C       0.01      23.92      14.16
