13

Zn       9.08      20.85       9.25
C       8.89      18.35      11.05
C       7.57      19.97      11.69
C      10.88      19.30       7.42
C      11.18      22.09      11.12
C       7.64      23.45       9.08
N       7.59      22.12       8.88
N      10.62      22.01       9.89
N       8.49      19.65      10.75
N       9.60      19.81       7.59
C       8.88      19.30       6.56
C       6.28      21.85       8.51
C      11.38      22.87       9.09
