84

Eu      15.46       4.50       8.08
Eu      10.41      11.33       0.24
Eu       4.50       7.72       7.55
Eu       9.56       0.90      15.39
H      14.91       8.62       3.58
H      12.83       6.45       9.81
H      12.22       5.82       5.46
H       7.74       6.41      10.16
H       8.54       3.61       2.34
H       7.14       5.78       5.81
H       9.05       4.10      13.58
H      15.12       9.74      11.39
H       4.85       2.49       4.23
H      10.91       8.13       2.04
H       5.06       3.61      12.04
H      11.42       8.62      13.28
C      12.96       7.24      10.55
C       5.72       3.13       4.18
C       9.80       5.97      11.77
C      10.16       6.26       3.85
C      15.12       7.92       9.44
C      10.84       6.61      11.65
C       9.12       5.62       3.98
C       8.56       5.31      11.85
C       8.28       4.35      12.86
C      12.42       6.58       4.70
C       7.02       3.75      12.92
C      13.43      10.40      13.44
C       7.97       4.81       4.06
C       7.55       5.65      10.92
C       6.29       5.05      11.00
C       7.79       3.78       3.11
C      13.93       8.14       3.64
C       6.68       2.94       3.18
C      14.74       6.79       5.61
C      11.41       6.92       3.77
C       7.00       4.99       5.08
C      13.28       9.29      12.45
C      14.24       9.10      11.45
C       6.03       4.09      11.98
C      14.08       8.07      10.50
C      12.17       8.45      12.52
C       5.22       5.44      10.02
C      13.67       7.18       4.63
C      11.68       7.88       2.76
C       6.68       2.74      13.97
C      13.28       9.49       1.66
C      12.00       7.42      11.57
C       4.84       4.31       6.19
C      12.94       8.48       2.71
C       5.88       4.16       5.13
C       6.53       1.83       2.18
N      12.78       3.43       7.68
N      10.47       2.01       0.14
N       9.50      10.21      15.49
N       7.19       8.80       7.95
O       6.18       9.40       8.46
O      14.63       5.66       6.16
O       9.43      11.37      14.95
O      11.15       2.96       0.52
O      15.70       7.62       5.81
O      14.50       9.74       1.42
O      12.37      10.81      14.00
O       4.05       3.35       6.43
O      10.54       0.86       0.68
O       4.27       4.61       9.81
O       8.81       9.27      15.11
O      13.78       2.83       7.17
O       4.77       5.43       6.84
O      13.04       4.25       8.66
O       5.46       2.49      14.20
O      15.91       8.88       9.20
O       7.60       1.42       1.62
O      12.34      10.09       1.01
O       6.92       7.98       6.97
O       7.63       2.14      14.61
O       8.33       8.96       8.36
O       5.36       1.37       1.97
O      10.88       2.94      14.80
O       9.08       9.29       0.83
O      15.19       6.80       8.79
O      14.60      10.86      13.66
O      11.63       3.27       7.27
O       5.34       6.57       9.46
