72

H       1.42       2.29      14.39
H       2.76       3.63      12.49
H       4.77       2.48      11.30
H       6.56       4.21      11.18
H      -2.16      -0.06      15.07
H      -2.07      -0.03      17.55
H      -1.42      -2.29      14.39
H      -2.76      -3.63      12.49
H      -4.77      -2.48      11.30
H      -6.56      -4.21      11.18
H       2.16       0.06      15.07
H       2.07       0.03      17.55
H       2.29       1.42       5.38
H       3.61       2.78       7.27
H       2.53       4.81       8.45
H       4.45       6.41       8.39
H      -0.08      -2.15       4.70
H      -0.06      -2.07       2.22
H      -2.29      -1.42       5.38
H      -3.61      -2.78       7.27
H      -2.53      -4.81       8.45
H      -4.45      -6.41       8.39
H       0.08       2.15       4.70
H       0.06       2.07       2.22
C       0.79       0.97      12.68
C       1.47       2.06      13.33
C       2.15       2.74      12.36
C       1.88       2.09      11.12
C       4.65       3.35      10.66
C       5.66       4.31      10.59
C      -1.19      -0.04      15.58
C      -1.15      -0.03      16.97
C      -0.79      -0.97      12.68
C      -1.47      -2.06      13.33
C      -2.15      -2.74      12.36
C      -1.88      -2.09      11.12
C      -4.65      -3.35      10.66
C      -5.66      -4.31      10.59
C       1.19       0.04      15.58
C       1.15       0.03      16.97
C       0.96       0.79       7.08
C       2.05       1.48       6.43
C       2.72       2.17       7.40
C       2.06       1.91       8.64
C       3.41       4.64       9.07
C       4.47       5.54       9.04
C      -0.05      -1.20       4.19
C      -0.05      -1.15       2.81
C      -0.96      -0.79       7.08
C      -2.05      -1.48       6.43
C      -2.72      -2.17       7.40
C      -2.06      -1.91       8.64
C      -3.41      -4.64       9.07
C      -4.47      -5.54       9.04
C       0.05       1.20       4.19
C       0.05       1.15       2.81
C       2.43       2.46       9.88
C       3.49       3.49       9.88
C      -2.43      -2.46       9.88
C      -3.49      -3.49       9.88
C       0.00       0.00      13.36
C      -0.00      -0.00      14.82
C       0.00       0.00       6.41
C       0.00       0.00       4.94
N       1.01       1.02      11.32
N      -1.01      -1.02      11.32
N       1.00       1.03       8.44
N      -1.00      -1.03       8.44
N       5.59       5.38       9.77
N      -5.59      -5.38       9.77
N      -0.00      -0.00      17.68
N       0.00       0.00       2.09
