72

H       9.35       5.63       4.49
H      10.66       4.26       2.60
H       9.58       2.24       1.42
H      11.49       0.63       1.48
H       6.98       9.21       5.18
H       7.00       9.12       7.66
H       4.77       8.47       4.49
H       3.45       9.84       2.60
H       4.54      11.87       1.42
H       2.62      13.47       1.48
H       7.13       4.90       5.18
H       7.11       4.98       7.66
H       8.48       4.76      -4.52
H       9.81       3.41      -2.61
H      11.82       4.57      -1.42
H      13.61       2.83      -1.31
H       4.90       7.11      -5.20
H       4.98       7.09      -7.68
H       5.64       9.34      -4.52
H       4.31      10.69      -2.61
H       2.29       9.53      -1.42
H       0.50      11.27      -1.31
H       9.21       6.99      -5.20
H       9.13       7.02      -7.68
C       8.01       6.26       2.79
C       9.10       5.57       3.44
C       9.78       4.87       2.47
C       9.11       5.14       1.23
C      10.46       2.41       0.80
C      11.52       1.51       0.83
C       7.00       8.25       5.69
C       7.01       8.20       7.07
C       6.10       7.85       2.79
C       5.01       8.53       3.44
C       4.34       9.23       2.47
C       5.00       8.96       1.23
C       3.66      11.69       0.80
C       2.60      12.59       0.83
C       7.11       5.86       5.69
C       7.10       5.90       7.07
C       7.84       6.08      -2.82
C       8.53       4.99      -3.46
C       9.20       4.30      -2.49
C       8.93       4.96      -1.25
C      11.70       3.70      -0.79
C      12.70       2.74      -0.72
C       5.86       7.10      -5.71
C       5.90       7.08      -7.10
C       6.27       8.02      -2.82
C       5.59       9.11      -3.46
C       4.91       9.80      -2.49
C       5.18       9.14      -1.25
C       2.41      10.41      -0.79
C       1.41      11.36      -0.72
C       8.25       7.00      -5.71
C       8.21       7.02      -7.10
C       9.48       4.59      -0.01
C      10.54       3.56      -0.01
C       4.64       9.51      -0.01
C       3.57      10.55      -0.01
C       7.06       7.05       3.47
C       7.06       7.05       4.93
C       7.06       7.05      -3.49
C       7.06       7.05      -4.95
N       8.05       6.02       1.43
N       6.06       8.08       1.43
N       8.07       6.03      -1.45
N       6.05       8.07      -1.45
N      12.64       1.66       0.10
N       1.47      12.44       0.10
N       7.06       7.05       7.79
N       7.06       7.05      -7.82
