688

H       4.04      10.76       3.63
H       0.08      12.08       4.11
H       1.00       9.22       1.17
H       3.55      10.94       6.18
H       3.72      14.79       7.87
H       1.66      14.15       4.25
H       2.64      16.62       6.77
H      40.82      11.29       2.53
H       3.18       8.23       1.17
H       4.87      11.39       8.17
H      38.48      31.62       3.77
H       0.01      30.31       4.05
H      41.46      33.44       1.43
H      38.97      31.17       6.25
H      39.11      27.21       7.67
H      41.03      28.22       4.07
H      40.75      25.72       6.60
H       1.69      31.27       2.58
H      39.27      34.45       1.68
H      37.76      30.51       8.25
H      10.78      38.46      48.56
H      12.13      42.41      48.11
H       9.29      41.48      51.07
H      10.94      38.99      46.01
H      14.77      38.82      44.28
H      14.19      40.82      47.94
H      16.62      39.88      45.36
H      11.38       1.66      49.73
H       8.26      39.32      51.03
H      11.36      37.70      44.00
H      31.65       4.02      48.54
H      30.41       0.02      48.19
H      33.57       1.03      50.77
H      31.17       3.59      46.05
H      27.19       3.40      44.70
H      28.29       1.41      48.23
H      25.77       1.68      45.73
H      31.47      40.77      49.51
H      34.53       3.25      50.56
H      30.45       4.83      44.09
H      25.17      10.27      29.57
H      21.18       9.11      30.21
H      22.13      11.72      27.05
H      24.79      10.29      32.09
H      24.82       6.62      34.12
H      22.63       7.03      30.55
H      23.44       4.82      33.35
H      19.47       9.79      28.53
H      24.33      12.54      26.81
H      26.20       9.94      34.01
H      17.33      32.08      29.79
H      21.32      33.36      30.13
H      20.28      30.45      27.28
H      17.78      32.34      32.25
H      17.94      36.16      34.01
H      19.92      35.44      30.37
H      19.62      37.73      33.07
H      22.97      32.56      28.49
H      18.12      29.45      27.41
H      16.47      32.88      34.21
H      32.15      25.11      22.64
H      33.34      21.13      22.03
H      30.75      22.09      25.20
H      32.11      24.71      20.13
H      35.76      24.72      18.04
H      35.40      22.58      21.64
H      37.57      23.32      18.80
H      32.69      19.43      23.73
H      29.90      24.28      25.41
H      32.42      26.09      18.18
H      10.34      17.27      22.50
H       9.11      21.27      22.13
H      12.03      20.23      24.96
H      10.06      17.68      20.03
H       6.22      17.89      18.31
H       7.01      19.91      21.91
H       4.71      19.63      19.23
H       9.94      22.93      23.74
H      13.00      18.04      24.85
H       9.48      16.34      18.09
H       0.96      17.63       2.93
H       0.50      24.90       4.41
H      39.03      23.41       4.52
H       0.90      18.29       7.08
H      17.64      41.46      49.28
H      24.93      41.91      47.91
H      23.45       3.37      47.79
H      18.37      41.53      45.13
H      22.17       3.49      29.33
H      21.75      38.74      31.00
H      17.80      40.18      30.98
H      22.03       2.95      33.50
H      38.91      22.16      22.87
H       3.69      21.76      21.29
H       2.25      17.81      21.30
H      39.51      22.03      18.71
H       6.41      12.07      10.37
H       6.71      15.15      17.00
H       8.56      17.78      14.29
H       2.96      14.42      10.81
H      36.21      30.03      10.23
H      35.20      27.34      16.98
H      33.38      24.69      14.27
H      39.36      27.33      10.95
H      12.07      36.09      41.85
H      15.22      35.65      35.26
H      17.84      33.88      38.03
H      14.41      39.54      41.34
H      29.98       6.33      42.08
H      27.42       7.18      35.27
H      24.71       9.05      37.89
H      27.32       3.15      41.38
H       7.47       1.77      51.89
H       4.96       8.40      51.50
H       6.74       7.97       2.98
H      10.71       3.94      50.31
H      35.14      40.73      52.04
H      37.59      34.06      51.64
H      35.76      34.48       3.10
H      31.98      38.57      50.30
H       1.77      35.11       0.32
H       8.44      37.53       0.70
H       7.98      35.78      49.21
H       3.92      31.88       1.93
H      40.71       7.40       0.35
H      34.07       4.90       0.67
H      34.51       6.74      49.23
H      38.54      10.64       1.94
H      28.75      19.33      25.83
H      26.21      12.73      25.24
H      27.82      13.11      29.11
H      32.01      17.16      24.30
H      13.85      23.01      25.88
H      16.31      29.66      25.40
H      14.61      29.26      29.22
H      10.60      25.17      24.30
H      23.08      28.61      26.42
H      29.71      26.17      26.98
H      29.29      27.74      23.10
H      25.23      31.89      27.95
H      19.37      13.72      26.41
H      12.76      16.25      26.89
H      13.14      14.52      23.08
H      17.20      10.46      27.95
C       2.13      11.56       4.01
C       3.06      10.73       3.34
C       2.67       9.87       2.29
C       1.30       9.85       1.93
C       0.33      10.64       2.58
C       0.77      11.51       3.61
C       2.55      12.42       5.06
C       3.32      11.93       6.14
C       3.73      12.78       7.19
C       3.40      14.16       7.12
C       2.63      14.68       6.06
C       2.21      13.80       5.04
C       2.28      16.03       6.06
C      41.44      10.56       2.26
C       3.55       9.01       1.66
C       4.48      12.30       8.26
C      40.42      30.81       4.03
C      39.46      31.69       3.47
C      39.83      32.66       2.51
C      41.19      32.74       2.12
C      42.18      31.88       2.67
C      41.77      30.92       3.62
C      40.04      29.84       5.00
C      39.26      30.20       6.13
C      38.92      29.25       7.13
C      39.35      27.91       6.96
C      40.12      27.52       5.84
C      40.46      28.49       4.88
C      40.63      26.24       5.75
C       1.05      31.98       2.31
C      38.92      33.56       1.98
C      38.18      29.61       8.25
C      11.60      40.37      48.20
C      10.76      39.44      48.86
C       9.91      39.83      49.92
C       9.91      41.19      50.30
C      10.71      42.16      49.65
C      11.56      41.73      48.61
C      12.45      39.96      47.13
C      11.94      39.21      46.05
C      12.77      38.81      44.98
C      14.15      39.13      45.04
C      14.69      39.88      46.11
C      13.82      40.29      47.15
C      16.05      40.21      46.10
C      10.64       1.04      49.99
C       9.04      38.94      50.54
C      12.27      38.09      43.90
C      30.87       2.08      48.24
C      31.74       3.04      48.81
C      32.74       2.67      49.74
C      32.85       1.30      50.09
C      32.00       0.31      49.54
C      31.02       0.72      48.62
C      29.87       2.47      47.30
C      30.20       3.28      46.18
C      29.23       3.62      45.20
C      27.90       3.16      45.39
C      27.55       2.35      46.49
C      28.54       2.01      47.43
C      26.28       1.82      46.59
C      32.12      41.42      49.87
C      33.62       3.58      50.29
C      29.56       4.39      44.10
C      23.24       9.56      30.04
C      24.18      10.31      29.30
C      23.80      11.11      28.20
C      22.43      11.14      27.84
C      21.45      10.42      28.57
C      21.88       9.62      29.66
C      23.65       8.78      31.16
C      24.49       9.31      32.16
C      24.92       8.54      33.26
C      24.50       7.19      33.34
C      23.65       6.62      32.36
C      23.23       7.43      31.28
C      23.25       5.29      32.49
C      20.09      10.51      28.25
C      24.70      11.92      27.50
C      25.78       9.07      34.21
C      19.27      32.87      30.10
C      18.31      32.04      29.48
C      18.66      31.14      28.44
C      20.02      31.10      28.03
C      21.01      31.91      28.63
C      20.61      32.79      29.66
C      18.90      33.76      31.15
C      18.09      33.32      32.23
C      17.75      34.18      33.30
C      18.20      35.52      33.26
C      19.00      35.99      32.19
C      19.34      35.10      31.15
C      19.49      37.28      32.19
C      22.35      31.82      28.26
C      17.75      30.26      27.86
C      16.93      33.75      34.34
C      32.87      23.18      22.18
C      32.12      24.13      22.92
C      31.34      23.75      24.03
C      31.32      22.38      24.40
C      32.05      21.40      23.68
C      32.83      21.83      22.58
C      33.65      23.59      21.05
C      33.09      24.42      20.05
C      33.85      24.83      18.93
C      35.20      24.41      18.84
C      35.79      23.58      19.82
C      34.99      23.17      20.92
C      37.11      23.18      19.68
C      31.96      20.05      24.00
C      30.52      24.65      24.72
C      33.30      25.67      17.97
C       9.57      19.21      22.18
C      10.40      18.25      22.80
C      11.31      18.60      23.82
C      11.37      19.96      24.22
C      10.57      20.96      23.62
C       9.67      20.56      22.60
C       8.67      18.84      21.13
C       9.09      18.01      20.06
C       8.21      17.67      19.01
C       6.88      18.15      19.05
C       6.43      18.97      20.11
C       7.34      19.31      21.14
C       5.15      19.49      20.11
C      10.67      22.30      23.98
C      12.18      17.69      24.41
C       8.61      16.82      17.98
C       1.04      17.78       5.03
C       0.74      18.62       6.12
C       0.22      19.92       5.93
C      42.44      20.38       4.61
C       0.24      19.54       3.50
C       0.76      18.24       3.73
C      41.93      21.69       4.41
C       0.37      22.79       4.37
C      42.32      24.10       4.39
C      40.93      24.34       4.47
C      40.04      23.24       4.45
C      40.53      21.92       4.44
C      17.82      41.39      47.17
C      18.68      41.68      46.09
C      19.98      42.19      46.31
C      20.42      42.43      47.64
C      19.56      42.16      48.74
C      18.26      41.65      48.48
C      21.73       0.47      47.86
C      22.82      42.04      47.92
C      24.14       0.09      47.92
C      24.37       1.48      47.86
C      23.28       2.36      47.86
C      21.95       1.88      47.84
C      22.20       3.41      31.44
C      21.89       2.59      32.55
C      21.38       1.28      32.38
C      21.17       0.79      31.07
C      21.45       1.60      29.94
C      21.96       2.91      30.15
C      20.68      41.93      30.90
C      21.60      40.84      30.91
C      21.09      39.52      30.95
C      19.71      39.27      31.01
C      18.81      40.35      30.93
C      19.28      41.69      30.90
C      39.02      22.19      20.76
C      39.85      21.89      19.66
C      41.16      21.39      19.85
C      41.64      21.18      21.16
C      40.81      21.46      22.28
C      39.51      21.96      22.06
C       0.50      20.69      21.35
C       1.58      21.60      21.35
C       2.90      21.10      21.33
C       3.15      19.71      21.28
C       2.07      18.82      21.35
C       0.74      19.29      21.36
C       4.60      13.15      10.43
C       3.91      14.17      11.10
C       4.51      14.89      12.16
C       5.83      14.56      12.56
C       6.53      13.51      11.91
C       5.91      12.82      10.84
C       6.45      15.24      13.64
C       6.22      14.81      14.97
C       6.88      15.47      16.04
C       7.76      16.55      15.80
C       7.94      16.99      14.48
C       7.31      16.35      13.39
C      37.89      28.75      10.43
C      38.44      27.71      11.20
C      37.72      27.13      12.27
C      36.44      27.64      12.60
C      35.89      28.72      11.86
C      36.62      29.26      10.78
C      35.70      27.06      13.67
C      35.85      27.55      14.99
C      35.08      26.99      16.03
C      34.17      25.94      15.78
C      34.04      25.46      14.46
C      34.79      26.01      13.40
C      13.15      37.91      41.75
C      14.17      38.59      41.07
C      14.91      37.95      40.04
C      14.58      36.62      39.67
C      13.53      35.94      40.33
C      12.83      36.59      41.37
C      15.28      35.98      38.61
C      14.86      36.18      37.27
C      15.53      35.50      36.23
C      16.62      34.64      36.49
C      17.05      34.49      37.83
C      16.39      35.14      38.89
C      28.73       4.64      41.90
C      27.70       4.07      41.12
C      27.14       4.75      40.02
C      27.64       6.04      39.68
C      28.70       6.61      40.43
C      29.23       5.91      41.54
C      27.08       6.75      38.59
C      27.59       6.57      37.28
C      27.04       7.32      36.21
C      25.99       8.24      36.42
C      25.48       8.39      37.72
C      26.01       7.66      38.81
C       9.18       2.68      51.04
C       9.83       3.91      50.83
C       9.27       5.12      51.30
C       8.04       5.09      52.01
C       7.38       3.85      52.23
C       7.96       2.66      51.74
C       7.41       6.29       0.14
C       6.49       6.94      51.59
C       5.67       7.96      52.11
C       5.73       8.33       1.16
C       6.70       7.72       1.99
C       7.53       6.69       1.50
C      33.48      39.83      51.10
C      32.83      38.60      50.86
C      33.36      37.38      51.37
C      34.56      37.41      52.13
C      35.21      38.65       0.07
C      34.66      39.84      51.86
C      35.17      36.21       0.27
C      36.09      35.55      51.72
C      36.88      34.50      52.24
C      36.79      34.12       1.29
C      35.83      34.74       2.11
C      35.02      35.79       1.61
C       2.66      33.41       1.19
C       3.90      32.75       1.40
C       5.11      33.29       0.91
C       5.08      34.51       0.18
C       3.84      35.18      52.27
C       2.65      34.62       0.47
C       6.28      35.13      52.05
C       6.95      36.03       0.61
C       7.99      36.83       0.09
C       8.35      36.77      51.04
C       7.73      35.82      50.21
C       6.68      35.00      50.69
C      39.80       9.10       1.21
C      38.57       9.76       1.42
C      37.36       9.20       0.94
C      37.40       7.97       0.23
C      38.63       7.31       0.01
C      39.82       7.89       0.50
C      36.20       7.35      52.08
C      35.54       6.42       0.62
C      34.51       5.61       0.08
C      34.14       5.71      51.03
C      34.76       6.68      50.22
C      35.80       7.50      50.73
C      30.47      18.42      25.01
C      31.11      17.19      24.80
C      30.53      15.97      25.24
C      29.28      16.01      25.92
C      28.63      17.25      26.14
C      29.23      18.44      25.68
C      28.63      14.81      26.32
C      27.74      14.18      25.41
C      26.89      13.16      25.89
C      26.88      12.79      27.25
C      27.82      13.37      28.12
C      28.69      14.39      27.67
C      12.14      23.91      25.03
C      11.48      25.15      24.82
C      12.04      26.36      25.29
C      13.27      26.33      26.00
C      13.94      25.09      26.22
C      13.36      23.90      25.73
C      13.90      27.53      26.41
C      14.80      28.19      25.53
C      15.62      29.23      26.02
C      15.58      29.61      27.38
C      14.63      29.00      28.23
C      13.80      27.95      27.77
C      23.97      30.34      27.24
C      25.20      31.00      27.44
C      26.42      30.43      26.98
C      26.39      29.19      26.30
C      25.16      28.52      26.09
C      23.96      29.10      26.56
C      27.59      28.55      25.90
C      28.25      27.67      26.81
C      29.28      26.83      26.33
C      29.64      26.82      24.97
C      29.04      27.75      24.10
C      28.00      28.60      24.54
C      18.47      12.00      27.24
C      17.23      11.35      27.45
C      16.02      11.93      26.99
C      16.06      13.17      26.31
C      17.29      13.83      26.09
C      18.48      13.23      26.56
C      14.86      13.81      25.89
C      14.21      14.72      26.77
C      13.18      15.55      26.27
C      12.80      15.50      24.91
C      13.40      14.55      24.07
C      14.43      13.71      24.54
N      39.64      20.81       4.50
N       1.76      22.55       4.35
N      42.39      20.76       7.03
N      42.45      20.01       2.19
N      40.46      25.56       4.66
N       1.50      16.55       5.17
N      20.85       2.76      47.77
N      22.59      40.64      47.92
N      20.84       0.02      45.22
N      20.01      42.42      50.05
N      25.60       1.95      47.68
N      16.58      40.94      47.02
N      18.38       0.32      30.90
N      22.99      41.10      30.90
N      21.09       0.47      33.50
N      21.23       1.09      28.64
N      19.23      38.05      31.18
N      22.66       4.65      31.54
N      42.11      18.39      21.35
N       1.33      23.00      21.35
N      41.99      21.10      18.74
N      41.30      21.23      23.59
N       4.38      19.24      21.12
N      37.78      22.65      20.65
N       7.51      16.78      12.06
N       5.35      13.72      15.22
N       3.83      15.95      12.82
N       7.84      13.17      12.33
N       8.38      17.21      16.77
N       3.98      12.54       9.43
N      34.65      25.52      12.07
N      36.78      28.60      15.24
N      38.26      26.05      13.02
N      34.61      29.22      12.21
N      33.43      25.36      16.72
N      38.60      29.19       9.40
N      16.81      34.97      40.24
N      13.76      37.04      37.00
N      15.97      38.62      39.38
N      13.20      34.61      39.94
N      17.30      34.00      35.55
N      12.52      38.55      42.72
N      25.50       7.83      40.13
N      28.64       5.64      37.06
N      26.08       4.19      39.27
N      29.20       7.89      40.06
N      25.43       8.96      35.45
N      29.14       3.95      42.95
N       8.45       6.02       2.34
N       6.36       6.51      50.24
N       9.90       6.37      51.08
N       6.14       3.82       0.61
N       4.83       9.14       1.72
N       9.61       1.51      50.60
N      34.10      36.47       2.46
N      36.25      35.99      50.38
N      32.73      36.14      51.11
N      36.42      38.67       0.81
N      37.67      33.29       1.82
N      33.08      41.00      50.63
N       6.00      34.10      49.84
N       6.52      36.16       1.95
N       6.35      32.65       1.13
N       3.82      36.41      51.57
N       9.17      37.66      50.49
N       1.49      33.00       1.66
N      36.48       8.42      49.89
N      35.97       6.26       1.96
N      36.11       9.84       1.16
N      38.66       6.07      51.62
N      33.33       4.82      50.48
N      40.98       9.53       1.65
N      29.58      15.04      28.56
N      27.68      14.61      24.06
N      31.16      14.73      25.02
N      27.37      17.28      26.79
N      25.95      11.99      27.78
N      30.92      19.60      24.59
N      12.91      27.28      28.64
N      14.91      27.74      24.19
N      11.40      27.60      25.07
N      15.18      25.07      26.90
N      16.48      30.43      27.90
N      11.71      22.74      24.58
N      27.34      29.48      23.65
N      27.82      27.61      28.16
N      27.66      31.08      27.20
N      25.13      27.26      25.43
N      30.44      25.90      24.44
N      22.80      30.77      27.69
N      15.09      12.80      23.67
N      14.66      14.84      28.11
N      14.77      11.29      27.21
N      17.32      15.08      25.43
N      11.99      16.41      24.38
N      19.64      11.55      27.66
O      38.87      20.79       3.51
O       1.04      20.04       1.50
O       0.95      21.01       7.71
O       2.33      23.04       5.36
O      38.96      20.83       5.55
O      41.60      19.29       1.60
O      41.52      20.25       7.79
O       2.30      23.02       3.32
O      20.81       3.53      48.76
O      20.02      41.36      50.74
O      21.09      41.45      44.55
O      23.09      40.08      46.91
O      20.88       3.45      46.72
O      19.29       0.80      50.63
O      20.35       0.89      44.46
O      23.04      40.10      48.96
O      17.64       0.30      29.89
O      22.29       1.05      27.97
O      22.11       0.25      34.20
O      23.55      40.64      31.93
O      17.67       0.33      31.94
O      20.38       1.78      28.02
O      20.20       0.98      34.23
O      23.54      40.60      29.89
O      42.11      17.65      22.36
O      41.33      22.30      24.26
O      42.22      22.12      18.04
O       1.80      23.55      20.32
O      42.11      17.67      20.32
O      40.61      20.39      24.20
O      41.49      20.21      18.00
O       1.81      23.55      22.37
O       7.13      17.97      11.90
O       8.68      13.32      11.41
O       3.54      16.87      12.02
O       4.38      14.06      15.93
O       8.72      16.70      11.73
O       7.90      11.98      12.74
O       2.77      15.54      13.36
O       5.95      12.76      15.77
O      33.47      25.67      11.65
O      33.79      29.10      11.26
O      38.46      25.05      12.29
O      37.68      28.23      16.04
O      34.96      24.31      11.99
O      34.67      30.43      12.54
O      39.34      26.37      13.58
O      36.21      29.61      15.71
O      17.99      35.36      40.40
O      13.34      33.80      40.89
O      16.88      38.94      40.18
O      14.10      38.00      36.26
O      16.73      33.77      40.59
O      12.02      34.54      39.52
O      15.56      39.67      38.80
O      12.82      36.42      36.45
O      24.29       7.51      40.19
O      29.06       8.72      40.99
O      25.06       4.00      39.99
O      28.29       4.73      36.27
O      25.64       9.01      40.53
O      30.42       7.82      39.75
O      26.41       3.11      38.74
O      29.67       6.21      36.60
O       9.31       6.82       2.81
O       6.20       3.13       1.66
O      11.04       6.40      51.61
O       5.20       6.07      50.01
O       7.87       5.46       3.30
O       5.21       3.37      52.19
O      10.02       6.61      49.85
O       6.61       7.44      49.44
O      33.22      35.69       2.89
O      36.31      39.37       1.85
O      31.57      36.11      51.59
O      37.42      36.41      50.17
O      34.68      37.01       3.43
O      37.38      39.11       0.13
O      32.67      35.90      49.88
O      36.00      35.07      49.56
O       6.78      33.23      49.38
O       3.12      36.34      50.53
O       6.37      31.50       0.62
O       6.11      37.32       2.20
O       5.45      34.70      48.88
O       3.39      37.35      52.28
O       6.60      32.55       2.36
O       7.45      35.89       2.76
O      35.69       9.29      49.44
O      39.36       6.14      50.58
O      36.09      10.98       0.63
O      36.40       5.10       2.18
O      37.04       7.85      48.93
O      39.11       5.14       0.04
O      35.87       9.95       2.38
O      35.03       6.51       2.77
O      30.41      14.23      29.05
O      27.41      17.96      27.85
O      32.29      14.68      25.57
O      26.54      15.07      23.78
O      28.97      15.60      29.50
O      26.47      17.74      26.05
O      31.31      14.50      23.79
O      27.95      13.68      23.27
O      12.05      28.08      29.11
O      15.12      24.38      27.94
O      10.26      27.63      25.60
O      16.07      27.31      23.93
O      13.51      26.74      29.59
O      16.10      24.63      26.17
O      11.28      27.84      23.84
O      14.63      28.66      23.38
O      28.14      30.32      23.15
O      24.44      27.30      24.39
O      27.69      32.20      26.65
O      27.38      26.47      28.45
O      26.78      28.85      22.71
O      24.69      26.35      26.18
O      27.90      31.22      28.42
O      28.74      27.90      28.95
O      14.29      11.95      23.21
O      18.01      15.03      24.38
O      14.73      10.16      26.66
O      15.10      15.99      28.36
O      15.65      13.40      22.72
O      17.78      15.99      26.17
O      14.54      11.16      28.44
O      13.74      14.58      28.92
