211

Dy      18.99      10.22      26.02
Dy      21.52      15.98      28.54
C      17.85      25.53      23.23
C      20.39       7.48      25.21
Dy      19.73      13.97      31.04
Dy      18.98      17.68      30.65
Dy      16.64      20.01      28.58
C      13.32      12.29      33.36
C      11.93      18.90      22.72
Dy      11.91      15.85      27.52
Dy      18.38       7.04      27.93
Dy       9.62      13.72      29.51
Dy      15.57      13.92      22.35
Dy      19.01      12.82      23.19
Dy      17.20      19.64      24.88
Dy      15.06      22.50      26.25
Dy      18.18      16.51      22.70
Dy      13.20      14.57      30.79
C      11.83      21.49      25.61
Dy      16.43      12.41      32.40
Dy      20.74      18.15      25.14
Dy      21.87      12.80      25.77
Dy      13.62      10.91      24.43
Dy      22.06      16.55      32.39
C      16.65      25.58      20.81
Dy      15.28      18.05      31.68
Dy      15.61       9.63      27.57
Dy      18.52      10.47      29.75
Dy      13.74      19.02      26.34
C      13.29      13.85      25.07
Dy      12.69      12.17      27.98
C      18.47      26.26      22.22
Dy      12.62      16.41      23.72
Dy      18.46      14.28      19.74
C      15.36      16.93      24.11
C      13.83       8.21      23.85
C      19.62      20.94      29.80
C      20.10      12.83      28.05
C      24.23      14.08      27.70
C      24.23       6.89      27.00
H      14.88       6.54      23.71
H      22.97       8.39      27.69
N       7.06      13.35      29.16
N      25.11       6.59      26.16
N      17.84      26.27      21.03
O      17.38       8.57      26.41
O      19.37      12.71      29.08
O      14.47      17.38      24.89
H      14.23      22.36      33.46
O      19.63      17.43      21.09
O      11.27      15.40      29.73
O      16.42      11.38      30.26
O      13.48      14.32      28.49
O      16.59      17.36      24.23
O      23.04      17.77      28.21
O      15.14      23.22      23.91
H      19.28      26.71      22.36
O      21.03      13.71      27.95
O      13.88      16.76      30.10
O      23.86      13.50      26.69
O      18.61      12.00      31.64
O      15.74      23.37      28.28
O      23.56      14.99      28.31
O      17.02      16.50      31.09
O      18.34       9.17      23.94
O      13.81      17.20      27.89
O      12.76       8.63      24.15
O      22.75      18.55      26.18
O      12.37      15.88      21.53
O      20.39      13.49      33.31
H      13.91       6.76      22.51
O      12.62      10.42      29.54
O      16.53      19.95      22.69
O      13.61      17.52      33.08
O      18.82      18.82      26.35
H      16.24      25.62      19.98
O      23.79      18.23      31.79
O      16.05      18.72      26.71
O      19.78      16.05      32.15
O      14.55      20.75      27.73
O      18.98      18.50      23.62
O      13.15      18.62      22.87
O      17.63      11.82      24.88
O      15.73      10.91      25.59
O      21.30      18.67      33.20
O      19.96      16.02      19.36
O      17.52      10.95      27.73
H      13.34       6.29      23.89
O      25.75      17.64      30.86
O      20.18      12.72      19.85
O      16.87      18.14      21.49
O      13.47      10.27      26.68
H      12.78      21.77      33.35
O      14.74       7.56      26.99
H      26.07       7.15      24.58
O      14.88       8.94      23.79
O      24.29      16.14      31.61
O      18.57      10.63      22.31
O      16.08      21.84      29.91
H      15.29      24.36      21.74
O      16.35       6.02      27.35
O      13.39      11.22      22.18
H      13.40      22.56      32.15
O      20.65       8.67      25.45
O      17.06      21.28      26.58
O      19.38      15.68      29.44
O      10.96      13.69      27.55
O      14.31       8.99      29.49
O      19.49       9.16      28.07
O      15.00      16.10      23.24
O      11.02      18.07      23.02
O       9.85      16.10      26.47
O      19.64       6.76      25.95
O      21.51      12.31      30.93
O      12.04      17.53      25.75
H      23.98       6.25      27.63
O      20.84      20.41      24.67
O      19.08      18.72      32.74
O      18.82      21.24      24.24
O      10.93      17.77      28.47
O      18.24       9.20      31.67
O      18.64      21.17      29.08
O      20.85      12.22      21.89
O      15.16      20.18      32.90
O      20.09      14.05      24.93
O      23.32      11.05      24.91
O      15.01      20.47      24.97
H      24.99       9.21      24.35
H      18.23      25.54      24.08
O      19.65      16.22      24.58
O      15.36      15.13      31.78
O      15.21      18.29      29.33
C      13.05      15.20      20.68
O      12.96      13.28      32.74
O      17.37      14.48      23.69
O      12.13      19.63      28.01
O      21.82      14.98      30.62
O      10.89      10.78      27.32
O      16.89      15.41      21.07
O      12.75      22.31      25.93
C      16.68      24.78      23.05
C       6.15      13.98      29.87
O       9.28      11.57      28.63
O      14.44      11.90      33.45
O      17.52      12.88      21.41
O      20.40      11.42      24.52
O      16.69      23.98      25.24
O      17.37      14.32      31.38
C      24.61      17.31      31.45
O      13.61      13.80      23.86
O      13.77      19.91      31.25
O      12.87      14.99      25.57
O      17.13      19.22      30.79
C      20.16      19.16      33.25
C      23.21      10.36      25.93
O      16.81      10.22      33.09
O      14.98      12.04      20.90
C      11.12      18.99      28.44
O      14.96      11.75      28.63
O      22.50      10.74      26.91
O      20.83      10.30      30.28
O      12.03      20.27      25.31
O      12.17      15.93      32.45
C      21.83      13.21      33.60
O      20.04      12.02      27.07
O      15.72      12.03      23.73
O      14.10      14.65      20.82
O      14.77      12.78      30.60
O      21.25      15.64      25.98
O      19.98      19.85      30.25
O      17.09       8.62      29.12
O      21.29      17.47      30.38
O      11.74      12.85      30.10
O      18.33      18.28      28.45
O       8.61      15.41      28.18
O      22.34      14.54      33.40
C      25.43       7.40      25.20
C      15.91      23.03      29.48
O      20.27      17.70      27.49
O      19.46      14.72      21.88
C       8.77      15.99      27.08
O      13.37      12.82      25.78
C      19.14      18.27      27.47
C      14.14      11.13      21.23
C       6.63      12.91      27.91
C      20.04      21.19      24.06
C      16.40      11.58      24.73
C      20.20      17.07      20.01
C      23.24      18.61      27.28
C      21.78      11.14      30.55
C       9.77      10.67      27.89
C      14.00       6.84      23.46
C      16.08      24.82      21.88
C      23.59       8.17      27.03
C      16.59      15.31      31.42
C      12.49      16.90      33.14
C      13.59      21.96      32.87
C      16.18      23.94      24.17
C      11.60      20.25      22.15
C      20.31      15.29      25.17
C      23.92       9.04      26.07
C      14.18      20.62      32.30
C      18.43       9.49      22.71
C      16.41      19.28      21.64
C      15.34      11.95      29.77
C      24.81       8.66      25.07
C      14.28      17.40      29.06
C      15.14       6.34      27.09
C      13.23       9.39      29.91
C      17.58       9.22      32.71
C      21.05      12.35      20.62
