10

N       9.40      15.38      14.68
C      12.41      13.78      17.04
N      11.28      12.72      14.09
C      10.38      14.80      17.96
C      11.12      11.49      13.77
C      10.30      16.26      14.50
Zn       9.90      13.58      15.39
N      11.06      14.11      17.01
C       8.17      15.72      14.37
C      12.17      13.40      13.50
