13

O       3.21       6.79       6.17
O       0.32       5.32       5.92
O       1.19       3.26       8.05
O       2.76       3.45       6.53
Tb       1.94       5.44       7.51
O       1.98       1.44       7.07
N       1.98       2.65       7.21
O       3.50       5.19       9.12
C       4.30       4.41       9.75
C      -0.31       6.52       9.88
O       0.66       6.38       9.05
C       4.47       6.77       5.95
C      -0.78       4.67       5.83
