69

H      13.04      11.10       1.80
H      11.37      11.35      -0.03
H      10.19      15.15       1.62
H      11.88      14.87       3.45
H      10.23      12.24      -1.83
H       9.15      11.55      -0.58
H       6.51       7.79      -5.50
H       6.64       9.66      -3.88
H      10.50      10.75      -5.45
H      10.37       8.83      -7.06
H       5.30      11.45       4.15
H       6.66      10.94       2.12
H       5.47      14.71       0.40
H       4.20      15.24       2.48
H       6.10      13.52      -1.57
H       7.35      14.31      -0.56
H       6.78      11.96      -3.38
H       7.45      10.83      -2.16
H       9.36      13.73      -3.55
H       8.92      14.90      -2.26
H       5.73      17.05      -6.95
H       5.54      15.28      -5.18
H       9.70      15.86      -4.20
H       9.86      17.62      -5.94
O       9.35       6.83      -8.10
O       7.33       6.27      -7.30
O       8.76      11.37      -3.70
O       3.16      14.77       4.70
O       3.58      12.71       5.46
O       6.84      12.37       0.01
O       9.03      19.17      -7.67
O       6.96      18.73      -8.40
O       7.41      14.47      -3.65
O       9.72      13.53      -0.26
O      14.21      11.71       3.94
O      13.63      13.74       4.71
C      13.53      12.76       3.85
C      12.56      12.96       2.74
C      12.41      11.98       1.75
C      11.47      12.12       0.73
C      10.67      13.28       0.69
C      10.82      14.27       1.67
C      11.76      14.11       2.68
C       9.38      12.46      -1.16
C       8.33       7.03      -7.31
C       8.43       8.19      -6.38
C       7.38       8.44      -5.49
C       7.45       9.50      -4.58
C       8.58      10.32      -4.57
C       9.63      10.09      -5.48
C       9.56       9.03      -6.37
C       4.66      13.38       3.44
C       5.36      12.16       3.33
C       6.10      11.86       2.19
C       6.13      12.77       1.12
C       5.45      14.00       1.22
C       4.74      14.29       2.38
C       7.04      13.36      -1.02
C       8.15      12.89      -1.97
C       7.68      11.69      -2.81
C       8.56      14.06      -2.88
C       7.97      18.50      -7.60
C       7.82      17.43      -6.57
C       6.59      16.77      -6.35
C       6.48      15.80      -5.36
C       7.61      15.45      -4.59
C       8.83      16.11      -4.79
C       8.92      17.09      -5.78
C       3.78      13.67       4.60
