16

H       0.40       6.17       0.37
H       0.25       7.92       0.55
H      -3.20       7.18      -2.86
N      -1.63       7.50      -5.28
N      -0.48       7.59      -5.96
H       1.84       7.39      -2.56
N       0.57       7.55      -5.13
H      -2.03       7.05      -0.67
C       0.09       7.43      -3.85
C      -1.32       7.38      -3.95
C      -2.11       7.24      -2.80
C      -1.45       7.16      -1.59
C      -0.02       7.21      -1.48
C       0.76       7.34      -2.62
C       0.62       7.13      -0.11
H       1.71       7.23      -0.18
