13

C       0.80       5.50      12.65
C       0.06       5.39      10.30
C       0.61       4.19      10.75
H       0.71       3.33      10.09
S       0.03       6.57      11.55
C       1.28       5.99      13.95
C       1.04       4.25      12.08
H       1.52       3.44      12.63
C      -0.38       5.66       8.92
O       1.03       7.23      14.23
O       1.94       5.19      14.67
O      -0.29       4.68       8.11
O      -0.79       6.84       8.61
