13

C       4.30       8.11      17.71
C       4.73       8.64      19.01
C       4.42       9.88      19.57
C       5.56       8.86      21.32
S       5.61       7.63      20.11
H       3.87      10.63      19.02
H       4.80      10.88      21.52
C       4.90      10.00      20.89
C       6.21       8.66      22.62
O       4.63       6.91      17.41
O       6.16       9.60      23.49
O       3.61       8.89      16.97
O       6.87       7.59      22.83
