13

C       5.28       6.73      12.01
O       4.03       7.13      14.60
C       3.97       8.07      13.74
O       5.62       9.84       8.55
O       6.56       7.83       8.08
O       3.31       9.14      13.95
S       4.59       9.11      11.23
H       6.32       6.11      10.14
C       5.90       8.62       8.83
H       5.38       5.86      12.64
C       5.47       8.10      10.14
C       5.76       6.86      10.69
C       4.63       7.88      12.44
