13

C       0.52      11.41      13.82
O       0.25      12.62      14.14
O      -2.31      11.82       8.80
O      -1.57       9.80       8.15
O       1.11      10.58      14.59
S      -0.99      11.80      11.49
H       0.40       8.89       9.81
H       1.41       9.18      12.26
C       0.15       9.69      10.51
C       0.68       9.84      11.80
C       0.15      10.94      12.47
C      -0.77      10.67      10.19
C      -1.59      10.77       8.98
