13

O       1.77       0.76      13.92
C      -0.21      -1.64      11.99
C       1.11      -0.31      13.71
H      -1.22      -2.28      10.11
S       0.46       0.74      11.22
C      -0.83       0.25       8.83
O      -1.49      -0.54       8.08
C      -0.40      -0.27      10.13
O       1.06      -1.25      14.58
C      -0.69      -1.52      10.67
C       0.44      -0.50      12.42
O      -0.54       1.47       8.55
H      -0.31      -2.52      12.63
