13

C       4.30      13.87      12.65
C       5.04      13.76      10.30
C       4.48      12.56      10.74
S       5.08      14.94      11.55
C       4.05      12.62      12.08
C       3.83      14.36      13.95
O       5.37      13.07       8.09
O       4.08      15.60      14.24
C       5.47      14.04       8.92
H       4.38      11.70      10.08
O       5.87      15.21       8.61
O       3.16      13.55      14.68
H       3.57      11.81      12.62
