13

C       5.25      15.42       1.62
C       5.78      15.27       2.92
C       5.26      14.16       3.58
C       4.32      14.43       1.31
S       4.11      13.31       2.61
C       3.50      14.34       0.10
O       5.41      12.48       5.24
O       2.77      13.30      -0.08
C       5.64      13.70       4.93
H       5.50      16.22       0.93
O       3.49      15.32      -0.73
H       6.51      15.93       3.38
O       6.21      14.54       5.70
