11

C      10.72      18.71       7.66
Ni      12.09      20.35       5.67
C      13.76      19.01       3.59
O      12.13      21.61       4.05
C      14.04      18.11       5.70
N      13.19      21.27       7.03
N      13.54      19.09       4.92
C      11.15      22.37       4.47
C      13.79      20.58       8.03
O      11.41      18.74       6.57
C      13.58      22.54       6.82
