16

V       0.48      11.58      10.58
V       4.08      11.87      10.45
O       3.66      11.21      12.30
O       0.06      12.23       8.73
O       1.26       9.87       9.82
O      -2.34      13.57      11.21
O       1.28      11.06      12.35
O      -2.32      12.38       8.67
O       0.08      13.43      11.28
C       2.50       9.41       9.58
O       2.47      12.50      10.16
O      -1.14      10.95      10.87
C      -1.10      12.54       8.16
C       2.50      10.91      12.87
C      -1.10      14.03      11.45
O       3.68      10.02       9.75
