16

V       4.86      -6.23      20.96
V       1.26      -6.52      21.09
O       1.70      -4.67      21.80
O       5.30      -8.08      20.26
O       4.05      -5.72      19.19
O       7.66      -7.04      22.87
O       4.07      -4.53      21.72
O       7.68      -8.23      20.34
O       5.28      -6.89      22.81
O       1.68      -5.87      19.25
O       2.87      -7.15      21.38
O       6.48      -5.60      20.68
C       2.84      -5.59      18.67
C       6.45      -7.16      23.39
C       2.86      -4.06      21.98
C       6.46      -8.69      20.08
