30

K       0.25       9.44       0.88
K       1.28      10.57       7.36
K      -1.34      12.96      -0.89
K      -2.35      11.95       9.08
O       1.47      10.77       3.02
Zn      -0.20      10.90       4.13
O       2.67      10.96       4.94
O       0.47      11.08      -1.43
Zn      -0.91      11.52      -4.14
O      -0.39      10.22       9.60
O       0.98      11.68      -3.55
O       0.03       9.26       5.26
O      -0.98       9.63      -4.70
O      -0.11       8.11       3.31
O      -1.58      11.29       1.38
O      -2.08      10.76       3.52
O      -2.57      11.67      -3.01
O      -3.72      11.48      -4.95
O      -0.71      12.28       6.80
O      -0.13      12.81       4.68
O      -1.09      13.17      -5.26
O      -1.01      14.33      -3.31
C       1.29      11.41      -2.33
C       2.57      10.84       3.70
C      -0.64       9.40      10.52
C       0.01       8.17       4.55
C      -2.39      11.01       2.30
C      -3.66      11.59      -3.71
C      -0.42      13.11       5.89
C      -1.11      14.26      -4.55
