9

Zn       5.09      11.25       8.19
O       5.89       8.59       8.48
O       3.85       9.55       8.23
O       6.47       9.92       8.35
O       6.33      12.95       8.20
C       5.62      13.96       8.02
C       4.56       8.54       8.40
O       4.30      13.91       7.90
O       3.72      12.58       8.03
