142

Mn       2.44       4.07       7.58
Cu       5.43       5.59       8.64
Cu      -0.54       2.55       6.51
Cu      -3.57       4.07       7.58
H      -1.67       2.80      13.75
H       2.60      11.62       0.38
H       3.57      12.49       1.60
H       3.93       7.58      12.12
H       6.44      -0.06       2.00
H       7.54      -0.87       3.15
H       1.35      10.53       2.18
H       0.42      11.48       3.38
H       5.18       9.19       6.49
H       4.52      11.22       5.17
H      -3.90       6.43      14.47
H       2.86       8.05      14.36
H      -2.70       2.63      11.47
H       0.20      13.54       0.29
H      -0.75      12.80       1.60
H      -0.26       5.24      13.42
H       0.82       4.79      11.20
H       7.04       3.12       5.20
H       4.04      -0.78       5.77
H       4.03       1.07       7.45
H       1.68       7.15       5.08
H       7.12       1.29       3.55
H       1.00       9.16       3.79
H      -4.98       6.18      12.24
H       6.56       5.33       1.40
H       2.29      -3.49      14.77
H       1.32      -4.35      13.55
H       0.96       0.56       3.03
H      -1.55       8.20      13.16
H      -2.65       9.01      12.01
H       3.54      -2.39      12.97
H       4.47      -3.34      11.77
H      -0.29      -1.05       8.67
H       0.37      -3.09       9.99
H       8.79       1.71       0.68
H       2.02       0.09       0.80
H       7.59       5.51       3.68
H       4.69      -5.40      14.87
H       5.64      -4.66      13.55
H       5.15       2.90       1.74
H       4.07       3.35       3.95
H      -2.15       5.02       9.96
H       0.85       8.92       9.39
H       0.86       7.07       7.71
H       3.21       0.99      10.07
H      -2.23       6.84      11.60
H       3.89      -1.02      11.36
H       9.87       1.96       2.92
C      -2.40       3.54      13.41
C       3.08       5.82      10.23
C      -4.40       4.44      10.31
C       2.44       6.16      11.54
C       1.41      12.67       1.86
C       2.66      12.54       0.98
C       3.01       7.09      12.42
C       6.55      -0.93       2.66
C       1.35      11.44       2.79
C       5.53       3.34       7.35
C       4.27       9.20       5.88
C       3.91      10.33       5.16
C      -2.70       4.63      14.24
C      -3.65       5.58      13.83
C       2.74      10.31       4.38
C       2.42       7.35      13.66
C      -2.98       3.44      12.15
C       0.15      12.69       0.99
C       0.66       5.75      13.14
C       1.26       5.49      11.91
C       6.44       2.23       5.35
C       3.47       8.04       5.85
C      -3.90       4.41      11.72
C       1.25       6.66      14.02
C       3.85       6.82       6.61
C       5.59       2.19       6.45
C       4.72       0.07       5.67
C       4.71       1.09       6.60
C       5.59       0.12       4.57
C       2.30       8.05       5.09
C       6.46       1.21       4.41
C       1.92       9.18       4.36
C      -4.25       5.45      12.58
C       7.29       4.60       1.75
C       1.81       2.32       4.93
C       9.29       3.70       4.84
C       2.45       1.98       3.61
C       3.48      -4.53      13.29
C       2.22      -4.40      14.18
C       1.88       1.05       2.73
C      -1.66       9.06      12.49
C       3.54      -3.30      12.37
C      -0.64       4.80       7.80
C       0.62      -1.06       9.27
C       0.98      -2.19      10.00
C       7.59       3.51       0.92
C       8.54       2.56       1.32
C       2.15      -2.17      10.77
C       2.47       0.79       1.50
C       7.87       4.70       3.01
C       4.74      -4.55      14.17
C       4.22       2.39       2.01
C       3.63       2.64       3.25
C      -1.55       5.91       9.81
C       1.42       0.10       9.30
C       8.79       3.73       3.44
C       3.64       1.47       1.14
C       1.04       1.32       8.54
C      -0.70       5.95       8.70
C       0.17       8.07       9.48
C       0.18       7.05       8.55
C      -0.70       8.02      10.58
C       2.59       0.09      10.06
C      -1.58       6.93      10.74
C       2.97      -1.04      10.79
C       9.14       2.69       2.57
O       4.54       3.53       8.12
O       0.11      11.44       0.26
O       6.78       5.33      10.05
O       2.43       5.08       9.43
O       4.26       6.31      10.04
O       3.09       5.81       6.56
O      -3.84       3.63       9.47
O       4.95       6.88       7.28
O       2.49      11.46       3.66
O       5.53      -0.91       3.68
O       6.46       4.27       7.34
O       2.77      13.69       0.10
O       0.35       4.61       7.03
O       4.78      -3.30      14.90
O      -1.89       2.81       5.11
O       2.46       3.06       5.72
O       0.63       1.83       5.12
O       1.80       2.33       8.60
O       8.73       4.51       5.68
O      -0.06       1.26       7.87
O       2.40      -3.32      11.49
O      -0.64       9.05      11.48
O      -1.57       3.87       7.82
O       2.12      -5.56      15.06
