35

N       8.92      12.15      12.01
N       6.86      15.16       8.46
N       6.52      15.50       7.19
N       7.06      13.34       7.19
N       4.96      14.21       2.47
N       6.40      11.09       7.43
H       6.74      14.55      11.02
H       7.82      13.59      13.04
H       9.82      10.75      10.76
C       7.43      13.72      10.93
C       8.03      13.19      12.05
C       9.11      11.58      10.79
C       8.52      12.02       9.62
C       7.68      13.16       9.65
C       7.19      13.85       8.49
C       6.60      14.41       6.42
H       7.33       8.31       5.74
C       6.08      14.32       5.07
H       8.76      11.51       8.69
H       5.81       9.12       7.55
C       6.02      15.46       4.24
H       6.40      16.42       4.57
C       5.47      15.36       2.97
C       5.53      13.13       4.55
C       7.19      11.99       6.79
C       4.99      13.12       3.28
H       5.43      16.23       2.32
H       4.55      12.21       2.87
C       8.06      11.65       5.74
C       8.12      10.31       5.36
C       6.48       9.81       7.03
H       5.48      12.21       5.13
C       7.31       9.36       6.01
H       8.63      12.43       5.24
H       8.79      10.01       4.55
