15

C      10.14      10.83      15.61
C       8.79      11.10      15.70
C       8.00      10.40      16.65
C       8.61       9.48      17.49
C       9.99       9.25      17.37
C      11.08      11.47      14.67
C      10.72       8.34      18.20
O      12.31      11.17      14.80
O      10.67      12.29      13.76
O      12.03       8.17      17.99
H       8.35      11.87      15.06
H       6.94      10.60      16.72
H       8.07       8.93      18.25
O      10.15       7.68      19.15
N      10.76       9.90      16.42
