15

O      16.34      11.60       4.26
H      14.26      10.58       5.62
C      16.61       8.61       7.96
C      15.26       8.35       8.04
C      14.37       9.09       7.21
C      14.89       9.98       6.27
C      16.28      10.15       6.18
C      17.65       8.02       8.83
C      16.93      10.98       5.22
H      14.88       7.59       8.72
H      13.30       8.97       7.32
O      18.85       8.36       8.58
O      17.32       7.23       9.80
O      18.26      11.11       5.34
N      17.14       9.51       7.06
