14

Zn      13.87       2.61       4.02
O      12.47       5.02       5.00
O      13.55       4.36       3.11
Zn      12.56       3.36       6.15
O      13.11       1.46       6.59
O      15.24       3.46       5.24
O      14.20       4.03       7.17
C      10.89       2.19       4.23
C      15.24       3.85       6.46
C      13.88       0.65       5.97
O      12.00       2.02       3.61
O      10.77       2.72       5.38
O      14.35       0.82       4.79
C      12.89       5.21       3.82
