14

C       7.80       8.90      16.47
Zn       4.81       8.47      16.67
Zn       6.13       7.73      14.55
O       3.45       7.63      15.46
C       4.81      10.43      14.72
O       4.49       7.06      13.52
C       5.80       5.88      16.88
C       3.44       7.24      14.24
O       6.69       9.07      17.08
O       7.92       8.36      15.31
O       4.34      10.26      15.91
O       5.58       9.62      14.10
O       5.13       6.72      17.58
O       6.22       6.07      15.69
