144

Zn       8.80      -2.35       9.02
Zn       4.39       1.71      10.16
Zn      -0.01       0.66       6.05
Zn      -4.38       9.62       3.59
Zn       0.04       5.55       2.45
Zn       4.44       6.60       6.56
H      -1.06      -1.44       9.61
H       0.07      -1.19       8.27
H      -0.76      -3.38       7.23
H       0.07      -3.55       8.79
H      -5.52       8.97       9.42
H      -6.09       9.03       7.74
H       5.67       7.66       9.23
H      -3.48      -5.42      10.24
H       7.77       1.78       9.06
H      -4.35       0.49       9.52
H      -5.17       0.67      11.93
H      -4.34       2.12      11.29
H      -1.10      10.91       0.11
H      -1.68       9.42       0.89
H      -3.16      11.40       1.34
H       5.36       4.31      12.20
H       3.35      -0.32       6.55
H       4.48       0.72       7.43
H       3.66       2.72       6.06
H       4.49       1.44       5.14
H       3.31       1.90       3.08
H       2.73       3.32       3.97
H       1.25       2.72       2.04
H       0.95       1.12       2.78
H       5.49       8.70       3.00
H       4.36       8.46       4.34
H       5.18      10.64       5.38
H       4.35      10.81       3.82
H       9.95      -1.70       3.19
H      10.52      -1.77       4.87
H      -1.24      -0.40       3.38
H       7.90      12.68       2.37
H      -3.35       5.49       3.55
H       8.78       6.78       3.09
H       9.59       6.59       0.68
H       8.77       5.15       1.32
H       5.53      -3.64      12.50
H       6.10      -2.15      11.72
H       7.59      -4.13      11.27
H      -0.94       2.95       0.41
H       1.07       7.58       6.06
H      -0.06       6.54       5.18
H       0.76       4.55       6.55
H      -0.07       5.82       7.47
H       1.12       5.37       9.53
H       1.69       3.94       8.64
H       3.18       4.55      10.57
H       3.48       6.14       9.83
C      -1.98      -0.96       7.76
C      -0.90      -1.63       8.54
C      -0.83      -3.14       8.30
C      -6.33       9.34       8.77
C       5.58       8.76       9.22
C       4.46       9.15       8.32
C       6.85      -0.07       9.58
C      -5.32       0.94       9.76
C      -5.24       1.49      11.19
C      -1.91      10.16       0.11
C      -3.25      10.84       0.40
C       8.88       9.87       0.51
C       2.44       1.05       7.89
C       3.52       0.71       6.92
C       3.59       1.67       5.73
C       2.50       2.28       3.73
C       1.16       2.18       3.00
C       0.04       2.76       3.79
C       6.40       8.23       4.85
C       5.33       8.90       4.07
C       5.25      10.40       4.31
C      10.75      -2.08       3.84
C      -1.16      -1.49       3.39
C      -0.04      -1.88       4.29
C      -2.43       7.34       3.03
C       9.74       6.32       2.85
C       9.67       5.78       1.42
C       6.34      -2.89      12.50
C       7.68      -3.57      12.21
C      -4.45      -2.60      12.10
C       1.98       6.21       4.72
C       0.91       6.56       5.69
C       0.83       5.60       6.88
C       1.93       4.99       8.88
C       3.27       5.09       9.61
C       4.39       4.50       8.82
N      -3.30      -1.20       7.85
N       9.33      -0.39       6.93
N      -3.01       0.31       6.31
N      -1.78      -0.03       6.81
N       8.31      -4.14       8.23
N       2.96      10.32       7.25
N       2.93       9.11       6.77
N       3.86       8.35       7.42
N       5.53       0.13       9.74
N       4.91      -1.07       9.49
N       5.82      -1.96       9.19
N       7.05      -1.35       9.24
N       3.90       1.93      12.10
N       7.37       8.36       0.04
N       7.35       8.55       1.33
N       8.28       9.50       1.65
N       1.12       1.09       7.64
N       0.50       1.48       8.80
N       1.41       1.67       9.71
N       2.63       1.40       9.17
N      -0.52       2.23       4.89
N      -1.46       3.11       5.33
N      -1.49       4.13       4.52
N      -0.56       3.94       3.53
N       7.73       8.47       4.76
N      -4.91       7.66       5.68
N       7.44       6.96       6.30
N       6.21       7.30       5.80
N      -3.89      11.41       4.38
N       1.47      -3.05       5.36
N       1.49      -1.84       5.84
N       0.56      -1.08       5.19
N      -1.11       7.14       2.87
N      -0.49       8.34       3.12
N      -1.40       9.22       3.42
N      -2.62       8.62       3.37
N       0.53       5.34       0.51
N      -2.95      -1.09      12.57
N      -2.92      -1.28      11.28
N      -3.86      -2.23      10.96
N       3.31       6.17       4.97
N       3.93       5.79       3.81
N       3.02       5.60       2.90
N       1.79       5.86       3.44
N       4.94       5.04       7.72
N       5.89       4.15       7.28
N       5.91       3.13       8.09
N       4.98       3.33       9.08
O      -2.00      -3.75       8.86
O      -6.41       2.28      11.44
O       2.42       1.49       4.92
O       6.43      11.02       3.75
O      10.84       4.99       1.17
O       2.00       5.78       7.69
