18

H       3.39      13.54      10.86
H       2.99       9.27      10.91
H       3.14      11.44      14.63
C       3.26      11.39       9.26
C       3.20      11.40      10.75
C       3.30      12.62      11.43
C       3.07      10.21      11.46
C       3.38      13.96      13.56
C       3.27      12.65      12.84
C       3.15      11.44      13.54
C       3.04      10.22      12.86
C       2.93       8.95      13.67
O       3.28      12.50       8.62
O       3.28      10.28       8.62
O       3.39      13.91      14.85
O       3.45      15.02      12.88
O       2.69       7.87      12.92
O       3.07       8.94      14.89
