18

H       5.38       5.56       8.31
H       6.72       5.04       7.69
O       5.44       9.83       5.24
O       7.55      10.35       4.93
H       6.53       7.51       9.07
H       7.84       6.98       8.38
O       7.89       4.85      10.10
O       5.78       4.34      10.41
C       6.65       9.82       5.62
C       6.98       9.13       6.92
C       6.46       7.69       7.02
H       7.95       9.12       7.03
H       6.61       9.65       7.65
H       6.79       7.18       6.27
H       5.49       7.70       6.96
C       6.68       4.87       9.72
C       6.35       5.55       8.42
C       6.87       7.00       8.32
