21

H      24.14       0.31      21.28
H      22.70      -1.02      19.78
H      20.70      -2.21      20.74
N      23.58       0.98      25.16
H      20.22      -2.07      23.18
H      24.13       3.46      28.65
H      25.67       2.60      28.44
N      24.36       1.98      25.77
H      25.23       3.88      27.29
C      21.90      -0.80      23.62
C      23.01      -0.10      23.06
C      23.28      -0.22      21.68
C      22.47      -0.96      20.84
C      21.35      -1.63      21.38
C      21.08      -1.55      22.74
C      23.85       0.79      23.86
C      24.12       2.04      27.06
C      24.83       3.06      27.90
O      21.57      -0.81      24.91
O      24.83       1.42      23.29
O      23.26       1.24      27.64
