21

H      24.49      28.25       0.87
H      24.82      29.27       2.30
C      27.50      23.13       4.35
C      26.44      22.89       3.43
C      25.96      21.57       3.27
C      26.50      20.51       3.99
C      27.55      20.75       4.88
C      28.05      22.04       5.06
C      25.81      23.95       2.65
C      25.83      27.40       2.36
C      25.25      28.55       1.60
O      28.05      24.33       4.58
O      24.88      23.67       1.78
O      26.69      27.65       3.30
N      26.18      25.23       2.84
N      25.49      26.16       2.05
H      25.15      21.39       2.57
H      26.09      19.51       3.85
H      27.98      19.93       5.46
H      28.86      22.25       5.76
H      26.07      29.07       1.07
