26

N      25.95      26.17       5.77
C      19.73      24.93      11.95
C      20.57      24.78      10.85
C      21.13      25.91      10.25
C      20.80      27.16      10.79
C      19.95      27.23      11.89
C      22.04      25.77       9.05
N      19.42      26.13      12.47
H      24.33      26.43       4.50
H      22.68      26.79       6.32
H      25.92      26.22       9.13
H      27.43      25.92       7.19
H      22.83      27.80       9.00
H      23.76      26.69      10.00
H      19.28      24.06      12.44
H      20.78      23.78      10.48
H      21.20      28.08      10.37
H      19.67      28.18      12.34
H      22.43      24.75       9.01
H      21.44      25.90       8.13
C      24.64      26.40       5.54
C      23.73      26.60       6.57
C      24.16      26.55       7.90
C      25.52      26.28       8.13
C      26.37      26.11       7.04
C      23.22      26.77       9.05
