21

H      20.00      15.15       0.22
H      20.35      16.57      -0.81
O      23.60      18.82       4.14
H      21.63      18.09       8.96
H      23.53      19.69       8.54
H      20.70      16.81       7.07
O      20.43      16.03       4.80
O      22.24      17.54       0.82
H      24.41      19.99       6.22
H      21.57      15.31      -0.60
C      23.06      18.58       5.34
C      21.99      17.67       5.58
C      21.51      17.51       6.90
C      22.05      18.22       7.96
C      23.10      19.12       7.72
C      23.60      19.29       6.43
C      21.36      16.89       4.51
C      21.37      16.61       1.07
C      20.77      15.86      -0.08
N      21.72      17.09       3.24
N      21.02      16.30       2.30
