21

O      18.60      17.78      27.72
O      15.35      19.40      29.95
O      16.91      15.05      29.77
H      16.03      21.42      28.83
H      17.47      22.92      27.49
H      19.48      21.96      26.32
H      19.95      19.51      26.45
H      14.93      15.42      32.39
H      16.02      14.05      31.99
H      14.48      14.27      31.11
C      18.27      19.08      27.72
C      17.16      19.63      28.42
C      16.89      21.01      28.30
C      17.71      21.85      27.55
C      18.82      21.31      26.89
C      19.10      19.95      26.97
C      16.33      18.84      29.32
C      16.05      15.64      30.57
C      15.33      14.80      31.58
N      16.60      17.54      29.51
N      15.82      16.93      30.50
