13

C       9.64       8.56       9.04
Cu       7.06       7.05       9.90
C       7.10       5.90       7.07
C       5.66       4.31      10.59
C       5.90       7.08      12.65
N       5.59       5.38       9.77
N       8.52       8.72       9.77
N       7.06       7.05       7.79
C       8.46       9.79      10.59
N       7.06       7.05      11.93
C       8.21       7.02      12.65
C       4.47       5.54       9.04
C       7.01       8.20       7.07
