13

C       0.77       5.58       5.76
S       1.65       6.30       4.47
C       1.94       4.76       3.75
C       1.39       3.76       4.49
C       0.73       4.23       5.63
H       1.44       2.87       4.25
C       2.71       4.64       2.48
C       0.17       6.44       6.82
H       0.30       3.67       6.24
O       0.46       7.65       6.81
O       2.67       3.52       1.92
O       3.32       5.65       2.07
O      -0.57       5.87       7.65
