13

O       4.88      13.98      15.53
O       7.09      18.10      10.64
O       7.73      15.97      10.80
O       3.85      15.76      16.37
S       6.07      15.33      13.19
C       5.18      16.05      14.48
H       5.86      18.76      12.98
H       4.72      17.96      14.96
C       4.59      15.19      15.54
C       6.36      16.86      12.48
C       5.80      17.86      13.21
C       5.14      17.40      14.35
C       7.13      16.99      11.21
