13

C       6.69       1.45       3.99
C       8.52       1.85       7.23
C       6.15       3.74       2.89
O       8.70       2.88       7.93
O       6.23       4.96       3.13
O       8.93       0.71       7.60
O       5.67       3.26       1.83
S       7.50       3.51       5.27
H       7.44       0.05       5.32
H       6.29       0.91       3.35
C       7.84       1.97       5.93
C       6.70       2.81       3.93
C       7.34       0.96       5.13
