13

O       6.02      10.09       0.79
O       8.49      12.17       5.60
O       5.79       7.92       1.12
O       9.05      10.47       6.90
S       7.22      10.72       3.46
H       7.28       7.26       3.40
C       6.88       9.17       2.80
C       8.02      10.02       4.80
C       7.37       8.17       3.60
C       8.03       8.66       4.73
C       6.20       9.06       1.50
C       8.57      10.94       5.83
H       8.42       8.11       5.37
