28

La       2.91       5.11       7.64
La       3.98       8.89       6.88
H       0.05       4.19       8.39
H       0.99       3.02       7.99
H       6.84       9.80       6.13
H       5.90      10.97       6.53
C       3.15      11.56       7.68
C       2.64      12.78       8.34
C       5.96       7.11       8.29
C       2.48       7.73       9.80
C       3.74       2.44       6.84
C       4.25       1.21       6.18
C       0.93       6.89       6.23
C       4.41       6.27       4.72
O       4.40      11.25       7.80
O       2.36      10.81       7.00
O       4.95       6.47       7.80
O       6.12       8.35       8.07
O       0.86       3.72       8.67
O       2.29       6.48       9.61
O       3.28       8.45       9.12
O       2.49       2.74       6.73
O       4.53       3.19       7.53
O       1.94       7.53       6.73
O       0.77       5.65       6.45
O       6.03      10.28       5.85
O       4.60       7.52       4.91
O       3.61       5.55       5.40
