16

O       2.05       1.59       0.98
O       5.50      -1.60      -0.98
V       2.44      -0.15       0.05
O      -0.24       1.75       0.92
O       4.35       0.81      -0.26
O       0.88      -0.81       0.26
V       5.91       0.15      -0.05
O       6.67       0.88      -1.74
C       4.38      -2.19      -1.24
C       4.40      -1.03       2.29
C       0.93       2.18       1.25
C       0.90       1.03      -2.28
O       5.52      -0.72       1.71
O       3.21      -1.74      -0.92
O       2.02       0.72      -1.71
O       3.23      -0.87       1.75
