100

Mg       8.42       4.13      11.13
Mg       5.34       5.26      11.13
Mg       5.91       2.03      11.13
Mg      -0.65       9.40       3.71
Mg       1.87       7.30       3.71
Mg      -1.21       6.17       3.71
Cu      -6.52      11.43       7.42
Cu      -6.52      11.43       0.00
H       6.27       8.83       8.86
H       2.32       1.08       8.87
H      11.03       1.51       8.86
H       6.27       8.83      13.39
H       2.32       1.08      13.38
H      11.03       1.51      13.39
H       4.48       9.92       5.98
H      -0.28       2.60       5.97
H      -4.23      10.35       5.96
H       4.48       9.92       1.44
H      -0.28       2.60       1.45
H      -4.23      10.35       1.46
H      -3.63       6.35       7.42
H       2.92       5.08       7.41
H       0.72      11.43       7.42
H      -3.63       6.35      14.83
H       2.92       5.08       0.00
H       0.72      11.43      14.84
C       7.14       8.68       8.23
C       7.85       7.48       8.29
C       7.45       6.43       9.31
C       2.02       1.91       8.24
C       2.73       3.11       8.29
C       3.84       3.28       9.31
C      10.47       0.83       8.23
C       9.07       0.83       8.29
C       8.37       1.71       9.30
C       7.14       8.68      14.02
C       7.85       7.48      13.96
C       7.45       6.43      12.95
C       2.02       1.91      14.01
C       2.73       3.11      13.96
C       3.84       3.28      12.95
C      10.47       0.83      14.02
C       9.07       0.83      13.96
C       8.37       1.71      12.95
C       3.91      10.60       6.61
C       2.52      10.60       6.54
C       1.82       9.72       5.53
C       0.59       2.75       6.60
C       1.30       3.95       6.54
C       0.90       5.00       5.53
C      -4.53       9.52       6.60
C      -3.82       8.31       6.54
C      -2.72       8.15       5.53
C       3.91      10.60       0.81
C       2.52      10.60       0.87
C       1.82       9.72       1.89
C       0.59       2.75       0.81
C       1.30       3.95       0.88
C       0.90       5.00       1.89
C      -4.53       9.52       0.82
C      -3.82       8.31       0.87
C      -2.72       8.15       1.89
C       8.92       7.29       7.42
C       2.37       4.14       7.42
C       1.81      11.43       7.42
C       8.92       7.29      14.83
C       2.37       4.14       0.00
C       1.81      11.43       0.00
N       7.51       9.70       7.41
N       0.95       1.73       7.42
N       4.61      11.43       7.42
N       7.51       9.70       0.01
N       0.95       1.73      14.83
N       4.61      11.43      14.84
O       8.37       5.62       9.64
O       6.25       6.50       9.72
O       4.09       4.48       9.65
O       4.37       2.20       9.72
O       7.21       1.32       9.65
O       9.03       2.71       9.71
O       8.37       5.62      12.61
O       6.25       6.50      12.54
O       4.09       4.48      12.61
O       4.37       2.20      12.54
O       7.21       1.32      12.61
O       9.03       2.71      12.54
O       0.66      10.11       5.19
O       2.48       8.72       5.12
O       1.81       5.81       5.19
O      -0.30       4.93       5.12
O      -2.47       6.95       5.19
O      -2.18       9.23       5.12
O       0.66      10.11       2.23
O       2.48       8.72       2.30
O       1.81       5.81       2.23
O      -0.30       4.93       2.30
O      -2.47       6.95       2.23
O      -2.18       9.23       2.30
O       6.55       3.81      11.13
O       0.00       7.62       3.71
