20

H       4.11       2.67       6.85
H       3.12       0.71       3.21
H       2.11       3.10       2.91
H       2.47       5.25       1.68
H       6.12       5.91       3.83
H       5.78       3.75       5.08
N       3.17       0.02       5.23
N       3.51       0.63       6.42
N       3.71       2.09       4.78
C       3.83       1.88       6.14
C       3.30       0.90       4.26
C       3.93       3.31       4.06
C       3.00       3.70       3.09
C       3.20       4.90       2.40
C       4.32       5.70       2.68
C       5.25       5.27       3.64
C       5.07       4.08       4.33
C       4.52       7.00       1.96
O       5.51       7.73       2.29
O       3.71       7.29       1.02
