20

O      12.74       4.80       8.27
O      12.98       2.57       8.64
C      12.02       1.27       1.67
C      12.10       3.42       1.31
C      12.29       2.75       3.71
C      12.97       1.83       4.52
C      13.11       2.11       5.88
C      12.60       3.29       6.42
C      11.93       4.20       5.60
C      11.75       3.92       4.24
C      12.79       3.61       7.89
H      12.05       0.31       2.18
H      12.22       4.49       1.47
H      13.38       0.92       4.09
H      13.64       1.42       6.53
H      11.55       5.12       6.04
H      11.21       4.62       3.60
N      11.89       1.44       0.37
N      11.94       2.80       0.16
N      12.15       2.49       2.31
