53

C       5.05      12.73       5.08
C       5.55      15.14       7.96
Si       6.18      10.17       4.38
H       5.24      10.02       7.19
H       5.03       8.16       8.83
H       6.70       5.42       6.00
H       7.02       7.28       4.37
H       7.13       8.23       2.38
H       8.91       8.25       0.66
H      10.16      12.15       1.97
H       8.45      12.09       3.80
H       3.74       8.37       4.32
H       1.95       8.02       2.61
H       3.58      11.18       0.22
H       5.45      11.47       1.86
H       7.74      11.27       6.59
H       7.51      13.28       8.05
H       4.11      14.57       5.77
H       4.36      12.58       4.26
O       5.57       5.93       9.71
O       5.72       4.39       8.06
O      10.96       9.11      -0.46
O      11.15      11.31      -0.33
O       0.91       8.32       0.33
O       1.41      10.34      -0.54
O       6.28      15.20       8.99
O       4.60      15.97       7.72
C       6.15       8.79       5.65
C       5.58       9.02       6.92
C       5.45       7.99       7.84
C       5.85       6.69       7.50
C       6.40       6.44       6.24
C       6.56       7.48       5.33
C       5.70       5.59       8.50
C       7.68      10.15       3.24
C       7.82       9.07       2.34
C       8.80       9.09       1.35
C       9.63      10.21       1.21
C       9.51      11.29       2.10
C       8.55      11.25       3.11
C      10.61      10.24       0.10
C       4.72       9.95       3.22
C       3.72       8.98       3.42
C       2.71       8.78       2.48
C       2.67       9.58       1.32
C       3.64      10.57       1.12
C       4.67      10.74       2.05
C       1.60       9.39       0.31
C       6.07      11.78       5.32
C       6.96      12.00       6.39
C       6.83      13.11       7.22
C       5.78      14.02       7.00
C       4.91      13.84       5.92
