396

C       8.39      13.36       1.11
C       9.77      13.12       0.80
C       1.20      27.06       3.53
C       0.23      27.20       2.51
C       8.64      13.39      31.56
C       9.98      11.87      29.52
C      10.19      11.55      30.88
C       9.53      12.31      31.87
C       0.24       0.64      32.58
C      15.49       1.95      32.28
C      15.07       2.87      33.27
C      15.17       2.49      34.63
C      15.66       0.88      15.86
C      15.66       0.54      14.47
C       0.25       1.47      13.45
C       0.43       2.19      16.16
C       7.96      13.85       9.88
C       8.50      12.84       9.05
C       8.51      12.96       7.65
C       8.05      13.70      11.28
C       0.61       1.00      40.53
C       0.50       0.95      39.13
C       0.12       0.17      22.76
C       1.32       0.17      23.52
C       1.30       0.05      24.94
C      13.67       6.11      31.97
C      13.54       6.93      30.82
C      12.85       8.18      30.87
C      14.33       4.85      31.92
C       0.52      26.99       1.12
C       1.90      26.74       0.82
C       9.07      13.44       3.51
C       8.10      13.58       2.49
C       0.78      27.02      31.56
C       2.10      25.51      29.51
C       2.33      25.19      30.87
C       1.67      25.95      31.87
C       8.10      14.26      32.58
C       7.62      15.57      32.27
C       7.19      16.49      33.27
C       7.30      16.11      34.62
C       7.94      14.42      15.82
C       7.90      14.10      14.43
C       8.18      15.04      13.42
C       8.42      15.73      16.13
C       0.09       0.25       9.91
C       0.63      26.49       9.09
C       0.65      26.60       7.68
C       0.16       0.12      11.32
C       8.48      14.62      40.52
C       8.37      14.57      39.12
C       8.32      13.65      22.73
C       9.48      13.69      23.55
C       9.38      13.64      24.97
C       8.39      13.66      21.32
C       5.80      19.73      31.97
C       5.68      20.56      30.82
C       4.98      21.81      30.87
C       6.45      18.48      31.92
C       8.37      13.58      30.17
C       9.05      12.86      29.15
C      15.57       1.19      34.98
C       0.21       0.28      33.96
C       0.01       0.43       7.02
C      15.13       1.42       7.83
C      15.21       1.36       9.25
C      14.00       3.44       9.40
C      13.94       3.49       8.00
C      13.42       4.49      10.25
C      15.69       0.48       5.60
C       8.11      13.66      25.62
C      12.22       8.62      32.08
C      12.40       7.81      33.22
C      13.10       6.59      33.18
C      11.42       9.79      32.19
C       0.49      27.20      30.18
C       1.15      26.49      29.15
C       7.69      14.81      34.98
C       8.06      13.90      33.96
C       7.87      14.04       6.99
C       7.26      15.03       7.81
C       7.35      14.96       9.23
C       6.15      17.04       9.40
C       6.07      17.10       8.00
C       5.57      18.09      10.26
C       7.82      14.10       5.58
C       4.36      22.25      32.07
C       4.53      21.44      33.22
C       5.23      20.22      33.17
C       3.56      23.42      32.18
C      10.77      13.03       1.80
C      10.40      13.13       3.15
C       0.65       2.77      13.81
C       0.80       3.12      15.16
C      13.44       8.58      28.57
C      14.08       7.34      28.52
C       2.90      26.65       1.81
C       2.53      26.75       3.17
C       8.57      16.34      13.78
C       8.74      16.69      15.14
C       5.57      22.21      28.57
C       6.22      20.96      28.52
C       3.71       0.03      24.96
C      13.43       9.49      27.41
C       5.57      23.12      27.40
C       0.15       0.23      21.35
C       3.72       0.13      23.56
C       0.06       0.04      25.65
C       7.37      13.33       0.09
C      15.53      27.09      45.91
C      14.58      26.87      44.90
C       5.38      12.93      45.25
C       5.00      12.90      46.61
C       5.99      13.10       0.40
C       7.46      13.53      16.84
C       6.56      12.46      16.55
C       5.98      11.64      17.54
C       6.25      11.91      18.90
C       7.19      12.91      19.25
C       7.79      13.68      18.22
C       7.77      13.47      38.46
C       7.21      12.45      39.28
C       7.21      12.56      40.70
C      15.73       0.02      41.36
C       6.02      10.47      40.86
C       6.01      10.38      39.46
C       5.40       9.45      41.72
C       7.74      13.40      37.05
C       0.07       0.17      42.76
C       6.96      13.69      24.79
C       7.06      13.63      23.39
C       4.95      27.21      25.74
C       7.95      13.65      27.03
C      14.28      12.62       0.50
C      15.06      12.31      46.55
C       0.75      12.29      46.60
C       9.31      26.23       0.62
C       8.52      26.49       1.77
C       7.11      26.49       1.72
C       0.81      11.58      44.30
C      15.14      11.64      44.25
C       1.60      11.13      43.14
C      12.86      12.68       0.45
C      10.72      26.34       0.73
C       3.86       8.81      16.24
C       3.21       8.29      15.09
C       2.46       7.08      15.15
C       2.37       6.33      16.36
C       2.98       6.88      17.50
C       3.71       8.09      17.45
C       1.84       7.38      12.84
C       2.61       8.55      12.79
C       1.06       6.92      11.67
C       4.63      10.00      16.19
C       1.73       5.07      16.47
C      15.23      26.96       0.11
C       7.67      13.46      45.90
C       6.71      13.24      44.88
C      13.25      26.55      45.26
C      12.87      26.53      46.62
C      13.86      26.73       0.42
C      15.15      27.24      16.87
C      14.31      26.13      16.55
C      13.74      25.28      17.53
C      13.96      25.56      18.89
C      14.80      26.63      19.27
C      15.40       0.18      18.27
C      15.63      27.10      38.47
C      15.08      26.07      39.29
C      15.08      26.19      40.71
C       7.86      13.65      41.35
C      13.89      24.10      40.87
C      13.88      24.00      39.46
C      13.27      23.08      41.73
C      15.61      27.02      37.06
C       7.93      13.79      42.76
C      14.61       0.11      24.89
C      14.63       0.10      23.48
C      11.78      13.66      25.13
C      11.87      13.70      23.72
C      12.98      13.65      25.99
C      15.71      27.24      27.07
C       6.41      26.24       0.51
C       7.19      25.94      46.56
C       8.62      25.92      46.61
C       1.44      12.61       0.61
C       0.66      12.86       1.76
C      14.98      12.87       1.71
C       8.67      25.20      44.31
C       7.27      25.27      44.26
C       9.46      24.76      43.15
C       4.99      26.30       0.46
C       2.86      12.72       0.72
C      11.72      22.40      16.21
C      11.06      21.89      15.06
C      10.32      20.67      15.12
C      10.25      19.91      16.33
C      10.88      20.46      17.47
C      11.59      21.68      17.41
C       9.67      20.97      12.82
C      10.44      22.15      12.76
C       8.88      20.51      11.66
C      12.47      23.60      16.15
C       9.64      18.64      16.45
H       0.74       0.08      45.61
H      10.06      12.94      47.04
H      10.03      10.38      28.35
H       9.78      12.12      32.84
H      15.50       2.29      31.32
H       0.29       0.92      18.58
H       8.94      12.21       7.10
H      13.89       5.45      10.02
H       0.72       0.84      43.18
H       1.00       0.53      20.87
H      14.66       4.49      31.02
H       8.61      13.71      45.59
H       2.19      26.57      47.06
H       2.16      24.01      28.35
H       1.93      25.75      32.83
H       7.63      15.91      31.32
H       8.48      14.37      18.52
H       1.08      25.84       7.14
H       6.03      19.05      10.04
H       8.59      14.46      43.17
H       9.26      13.91      20.85
H       6.79      18.12      31.02
H      13.58       4.27      11.31
H      13.16       6.04      34.04
H      11.97       8.08      34.12
H      11.03      10.04      33.10
H       7.69      14.28      29.86
H       5.74      17.86      11.32
H       5.29      19.67      34.03
H       4.11      21.72      34.11
H       3.17      23.68      33.09
H      11.41      12.10       4.37
H      15.54       3.88      35.85
H       0.46       2.52      17.12
H       0.95       1.69      38.59
H       1.08       1.81      40.95
H      14.55       7.01      27.67
H      12.88       9.03      26.59
H       3.54      25.72       4.39
H       7.68      17.51      35.84
H       8.46      16.05      17.10
H       8.81      15.31      38.58
H       8.95      15.43      40.94
H       6.68      20.63      27.67
H       5.02      22.66      26.58
H      13.48       4.27       7.51
H       5.61      17.88       7.52
H      12.96      10.44      27.65
H       5.09      24.07      27.65
H       8.96      12.02       9.46
H       1.09      25.67       9.51
H      15.53       0.64      29.88
H      15.02       0.19       2.80
H       4.06      13.63      44.08
H       5.69      12.98       1.37
H       8.32      12.96      34.25
H       7.65      13.16      14.13
H       1.96       3.52      12.66
H       4.85      11.56      20.12
H       6.26      12.29      15.59
H      12.35       4.56      10.07
H      15.05       1.12       5.13
H       8.30      12.80      11.69
H       5.57       9.59      38.98
H       5.51       9.71      42.78
H       5.88       8.48      41.55
H       4.34       9.37      41.49
H       7.51      12.52      36.59
H       4.59       0.16      23.03
H       6.19      13.63      22.85
H       6.03      13.70      25.21
H       4.74      27.14      26.81
H       5.55       0.86      25.57
H       5.53      26.33      25.44
H       7.04      13.88      27.44
H      14.62      11.40      43.40
H       6.61      26.72       2.58
H       8.97      26.72       2.66
H       2.66      11.06      43.39
H       1.48      11.83      42.32
H       1.26      10.14      42.82
H      12.39      12.57      46.75
H      11.14      26.56       1.64
H      14.45       9.69      27.09
H       2.67       9.11      11.93
H       4.15       8.41      18.31
H       2.95       6.39      18.40
H       0.46       6.05      11.92
H       1.74       6.66      10.85
H       0.39       7.71      11.34
H       4.78      10.47      15.29
H       1.69       4.61      17.39
H       7.15      13.82       2.78
H      11.94      27.25      44.09
H      13.56      26.61       1.38
H       0.47      26.59      34.26
H      15.41      26.85      14.16
H       9.83      17.14      12.61
H      12.57      25.08      20.08
H      14.06      25.94      15.59
H       4.49      18.16      10.09
H       7.18      14.74       5.11
H       0.40      26.46      11.73
H      13.44      23.21      38.99
H      13.37      23.33      42.78
H      13.74      22.11      41.55
H      12.20      22.99      41.49
H      15.38      26.14      36.59
H      12.77      13.72      23.25
H      13.74       0.12      22.97
H      13.69       0.10      25.35
H      12.71      13.61      27.04
H      13.57      14.54      25.81
H      13.59      12.77      25.76
H      14.82       0.21      27.52
H       6.75      25.03      43.41
H      14.47      13.09       2.57
H       1.10      13.09       2.65
H      10.52      24.69      43.39
H       9.34      25.46      42.32
H       9.12      23.77      42.82
H       4.52      26.19      46.76
H       3.27      12.93       1.63
H       6.59      23.32      27.08
H      10.48      22.72      11.91
H      12.04      22.00      18.27
H      10.85      19.97      18.37
H       8.29      19.63      11.91
H       9.55      20.26      10.83
H       8.20      21.30      11.34
H      12.61      24.08      15.26
H       9.62      18.17      17.36
N       0.96      27.20       4.86
N      14.55       4.09      33.02
N      11.01      10.49      31.12
N       0.21       1.21      12.12
N       8.82      13.58       4.84
N       6.67      17.72      33.02
N       3.15      24.13      31.10
N       8.12      14.79      12.09
N      15.57       0.90      36.31
N       8.86      13.05      27.82
N      14.63       2.37       9.96
N      14.50       2.49       7.27
N       7.70      14.52      36.31
N       0.93      26.66      27.82
N       6.78      15.97       9.95
N       6.63      16.11       7.27
N       2.50       0.00      25.58
N       2.53       0.19      22.90
N      12.85       8.94      29.74
N      14.12       6.58      29.64
N      10.54      13.64      25.68
N      10.73      13.71      23.00
N       4.98      22.57      29.74
N       6.25      20.20      29.64
N      12.10      12.86       1.55
N       1.33       4.35      15.40
N       4.23      26.49       1.56
N       9.24      17.92      15.37
N       3.67      12.73      46.85
N      14.83      26.93      43.56
N       7.43      13.06      20.58
N       5.17      10.57      17.29
N       6.63      11.56      41.41
N       6.60      11.36      38.73
N       1.41      11.91      45.47
N      14.46      11.99      45.37
N       1.81       6.70      14.01
N       3.25       8.96      13.91
N      11.54      26.35      46.85
N       6.96      13.31      43.55
N      14.98      26.80      20.61
N      12.98      24.19      17.26
N      14.49      25.18      41.42
N      14.47      24.99      38.74
N       9.28      25.54      45.48
N       6.59      25.62      45.38
N       9.66      20.29      13.99
N      11.08      22.56      13.88
O      10.61      11.16      28.55
O      14.75       3.36      35.60
O       2.73      24.79      28.53
O       6.89      16.98      35.59
O      11.35      13.05       4.12
O       1.00       3.66      12.83
O       3.49      26.67       4.14
O       8.87      17.25      12.80
O       4.45      12.74      44.28
O       5.70      11.13      19.87
O      12.32      26.36      44.29
O      13.46      24.73      19.85
