616

H       3.94      13.47      11.03
H       2.20      12.57       9.70
H       3.15      10.55      13.98
H       1.41       9.67      12.64
H      27.75       9.94      12.30
H      26.01      11.28      13.21
H      26.82      14.26      10.34
H      28.55      12.93       9.43
H      27.63      10.78       8.04
H      27.97      10.87       5.70
H       3.15      10.15       6.29
H       2.80      10.07       8.62
H       2.32       8.30      10.48
H      27.14       8.91       9.78
H      26.78       6.58       9.82
H       1.96       5.95      10.52
H      25.17      14.66      12.03
H       4.81      12.23      14.40
H       2.33      10.59       4.06
H      27.59       4.34      10.17
H       3.94      43.40      45.33
H       2.20      44.30      46.67
H       3.15      46.32      42.38
H       1.41      47.20      43.72
H      27.75      46.93      44.07
H      26.01      45.59      43.15
H      26.82      42.61      46.03
H      28.55      43.94      46.93
H      27.63      46.09      48.32
H      27.97      46.00      50.66
H       3.15      46.72      50.07
H       2.80      46.80      47.74
H       2.32      48.57      45.88
H      27.14      47.96      46.58
H      26.78      50.29      46.55
H       1.96      50.91      45.85
H      25.17      42.20      44.33
H       4.81      44.63      41.96
H       2.33      46.28      52.30
H      27.59      52.52      46.20
H       3.94      45.58      13.22
H       2.20      46.92      12.32
H       3.15      42.63      10.30
H       1.41      43.97       9.41
H      27.75      44.32       9.69
H      26.01      43.41      11.02
H      26.82      46.28      14.01
H      28.55      47.18      12.67
H      27.63      48.57      10.53
H      27.97      50.92      10.61
H       3.15      50.33       9.90
H       2.80      47.99       9.82
H       2.32      46.14       8.05
H      27.14      46.83       8.66
H      26.78      46.80       6.32
H       1.96      46.10       5.70
H      25.17      44.58      14.41
H       4.81      42.22      11.98
H       2.33      52.56      10.33
H      27.59      46.45       4.09
H       3.94      11.29      43.15
H       2.20       9.95      44.05
H       3.14      14.24      46.06
H       1.41      12.90      46.94
H      27.75      12.55      46.68
H      26.01      13.46      45.34
H      26.82      10.59      42.35
H      28.56       9.69      43.69
H      27.63       8.30      45.82
H      27.97       5.95      45.74
H       3.15       6.54      46.47
H       2.80       8.88      46.55
H       2.32      10.74      48.32
H      27.14      10.03      47.70
H      26.79      10.06      50.04
H       1.96      10.77      50.66
H      25.17      12.29      41.95
H       4.81      14.65      44.38
H       2.33       4.31      46.02
H      27.59      10.42      52.27
H      18.38      40.97      38.50
H      16.66      40.05      37.16
H      17.60      38.07      41.46
H      15.88      37.16      40.12
H      13.29      37.40      39.77
H      11.57      38.74      40.71
H      12.36      41.74      37.86
H      14.08      40.41      36.93
H      13.16      38.28      35.52
H      13.50      38.36      33.18
H      17.61      37.61      33.76
H      17.26      37.53      36.10
H      16.78      35.78      37.97
H      12.68      36.39      37.24
H      12.32      34.05      37.27
H      16.43      33.43      38.01
H      10.80      42.17      39.67
H      19.17      39.87      41.90
H      16.79      38.07      31.54
H      13.12      31.82      37.65
H      18.38      15.90      17.86
H      16.66      16.82      19.20
H      17.61      18.80      14.90
H      15.88      19.71      16.24
H      13.29      19.46      16.59
H      11.57      18.13      15.65
H      12.36      15.13      18.50
H      14.08      16.46      19.44
H      13.16      18.59      20.84
H      13.50      18.51      23.19
H      17.61      19.25      22.60
H      17.26      19.33      20.26
H      16.78      21.09      18.39
H      12.68      20.48      19.12
H      12.32      22.82      19.09
H      16.43      23.44      18.35
H      10.80      14.70      16.70
H      19.17      17.00      14.46
H      16.79      18.80      24.83
H      13.12      25.05      18.72
H      18.38      18.12      40.72
H      16.66      19.46      39.80
H      17.61      15.15      37.82
H      15.88      16.49      36.90
H      13.29      16.84      37.15
H      11.57      15.90      38.48
H      12.36      18.76      41.49
H      14.08      19.69      40.15
H      13.16      21.10      38.03
H      13.50      23.44      38.11
H      17.61      22.85      37.36
H      17.26      20.52      37.28
H      16.78      18.64      35.52
H      12.68      19.37      36.13
H      12.32      19.34      33.80
H      16.43      18.61      33.18
H      10.80      16.95      41.91
H      19.17      14.71      39.61
H      16.79      25.08      37.82
H      13.12      18.96      31.57
H      18.38      38.75      15.64
H      16.66      37.41      16.56
H      17.61      41.72      18.55
H      15.89      40.37      19.46
H      13.29      40.03      19.21
H      11.57      40.97      17.88
H      12.36      38.11      14.87
H      14.07      37.18      16.21
H      13.16      35.77      18.34
H      13.50      33.43      18.26
H      17.61      34.02      19.00
H      17.27      36.35      19.08
H      16.78      38.22      20.84
H      12.68      37.50      20.23
H      12.32      37.53      22.56
H      16.43      38.26      23.18
H      10.80      39.92      14.45
H      19.17      42.16      16.75
H      16.79      31.79      18.54
H      13.12      37.90      24.79
H       2.35      54.75      11.23
H       2.34       2.19      11.18
H      27.51       2.15       9.32
H      26.45       0.08       8.85
H      27.15      53.57       9.19
H       2.35       2.12      45.13
H       2.34      54.68      45.18
H      27.51      54.72      47.05
H      26.45       1.84      47.51
H      27.15       3.30      47.17
H       2.35      45.39      54.50
H       2.34      45.43       1.93
H      27.51      47.30       1.90
H      26.45      47.77      54.78
H      27.15      47.42      53.32
H       2.35      11.48       1.86
H       2.34      11.44      54.43
H      27.51       9.57      54.46
H      26.45       9.10       1.58
H      27.15       9.45       3.05
H      16.82      27.28      38.71
H      16.81      29.66      38.66
H      13.05      29.63      36.80
H      11.98      27.56      36.33
H      12.68      26.10      36.67
H      16.82      29.59      17.65
H      16.81      27.21      17.69
H      13.05      27.24      19.57
H      11.99      29.31      20.04
H      12.68      30.77      19.69
H      16.82      17.91      27.02
H      16.81      17.95      29.41
H      13.05      19.82      29.38
H      11.99      20.29      27.31
H      12.68      19.94      25.84
H      16.82      38.96      29.34
H      16.81      38.92      26.95
H      13.05      37.05      26.99
H      11.98      36.58      29.06
H      12.68      36.93      30.52
H      21.33      16.73      13.60
H      23.12      15.65      12.48
H      23.14      12.60      15.37
H      21.56      12.68      17.15
H      20.43      13.89      17.30
H      21.34      40.14      42.76
H      23.12      41.21      43.88
H      23.14      44.27      40.99
H      21.56      44.19      39.21
H      20.43      42.98      39.06
H      21.34      43.01      16.48
H      23.12      44.14      15.40
H      23.14      41.25      12.35
H      21.56      39.46      12.43
H      20.43      39.31      13.63
H      21.34      13.85      39.89
H      23.12      12.73      40.96
H      23.14      15.62      44.01
H      21.56      17.40      43.94
H      20.43      17.56      42.73
H       8.61      40.13      13.62
H       6.82      41.20      12.49
H       6.81      44.27      15.36
H       8.38      44.20      17.14
H       9.51      42.99      17.30
H       8.61      16.74      42.75
H       6.82      15.67      43.87
H       6.81      12.60      41.00
H       8.38      12.67      39.22
H       9.51      13.87      39.06
H       8.61      13.87      16.48
H       6.82      12.74      15.42
H       6.81      15.61      12.35
H       8.38      17.40      12.41
H       9.51      17.55      13.62
H       8.61      43.00      39.88
H       6.82      44.13      40.95
H       6.80      41.26      44.02
H       8.38      39.47      43.95
H       9.51      39.31      42.74
C      28.80       6.01      10.20
C      27.73       6.92       9.99
C      27.95       8.31       9.98
C       0.28       8.89      10.24
C       1.36       7.96      10.38
C       1.15       6.57      10.39
C       0.51      10.40      10.13
C       0.72      10.53       8.61
C       2.00      10.28       8.03
C       2.20      10.32       6.64
C       1.13      10.55       5.74
C      28.78      10.72       6.30
C      28.58      10.69       7.70
C      28.28      11.23      10.69
C       1.67      10.95      10.96
C       2.41      12.10      10.58
C       3.44      12.64      11.38
C       3.76      12.08      12.63
C       2.98      10.98      13.06
C       1.96      10.44      12.26
C      27.54      10.83      11.84
C      26.51      11.63      12.39
C      26.20      12.89      11.84
C      26.98      13.34      10.75
C      28.00      12.54      10.20
C       4.76      12.59      13.47
C      28.54       4.64      10.20
C       1.38      10.58       4.37
C      25.20      13.73      12.37
C      28.80      50.85      46.16
C      27.73      49.95      46.37
C      27.95      48.56      46.38
C       0.28      47.98      46.13
C       1.36      48.91      45.98
C       1.15      50.30      45.98
C       0.51      46.47      46.23
C       0.72      46.34      47.75
C       2.00      46.59      48.33
C       2.20      46.55      49.72
C       1.13      46.32      50.62
C      28.78      46.15      50.06
C      28.58      46.18      48.66
C      28.28      45.64      45.67
C       1.67      45.92      45.40
C       2.41      44.77      45.78
C       3.44      44.23      44.99
C       3.76      44.79      43.73
C       2.98      45.89      43.30
C       1.96      46.43      44.10
C      27.54      46.04      44.52
C      26.52      45.24      43.97
C      26.20      43.97      44.52
C      26.98      43.53      45.61
C      28.00      44.33      46.16
C       4.76      44.28      42.89
C      28.54      52.23      46.16
C       1.38      46.29      52.00
C      25.21      43.14      44.00
C      28.80      46.41       5.76
C      27.73      46.63       6.67
C      27.95      46.63       8.06
C       0.28      46.38       8.63
C       1.36      46.23       7.71
C       1.15      46.23       6.31
C       0.51      46.49      10.15
C       0.72      48.00      10.28
C       2.00      48.58      10.03
C       2.20      49.98      10.06
C       1.13      50.87      10.30
C      28.78      50.31      10.47
C      28.58      48.92      10.44
C      28.28      45.93      10.98
C       1.67      45.65      10.69
C       2.41      46.04      11.85
C       3.44      45.24      12.39
C       3.76      43.98      11.83
C       2.98      43.55      10.72
C       1.96      44.35      10.19
C      27.54      44.78      10.58
C      26.52      44.23      11.37
C      26.20      44.77      12.64
C      26.98      45.87      13.08
C      28.00      46.41      12.28
C       4.76      43.14      12.34
C      28.54      46.41       4.39
C       1.38      52.25      10.32
C      25.21      44.25      13.48
C      28.80      10.46      50.60
C      27.73      10.24      49.69
C      27.95      10.23      48.30
C       0.29      10.49      47.73
C       1.36      10.64      48.65
C       1.15      10.64      50.05
C       0.51      10.38      46.22
C       0.72       8.87      46.09
C       1.99       8.28      46.34
C       2.20       6.89      46.30
C       1.13       6.00      46.07
C      28.78       6.56      45.89
C      28.58       7.95      45.92
C      28.28      10.94      45.38
C       1.67      11.22      45.67
C       2.41      10.83      44.52
C       3.44      11.63      43.97
C       3.76      12.89      44.53
C       2.98      13.32      45.64
C       1.95      12.52      46.17
C      27.54      12.09      45.78
C      26.51      12.64      44.99
C      26.20      12.10      43.72
C      26.98      11.00      43.28
C      28.01      10.46      44.08
C       4.76      13.72      44.02
C      28.54      10.46      51.98
C       1.38       4.62      46.04
C      25.21      12.62      42.89
C      14.33      33.49      37.68
C      13.27      34.40      37.45
C      13.48      35.79      37.45
C      14.76      36.36      37.71
C      15.83      35.44      37.87
C      15.62      34.04      37.87
C      14.97      37.88      37.60
C      15.19      38.01      36.09
C      16.46      37.75      35.51
C      16.66      37.79      34.11
C      15.60      38.03      33.22
C      14.31      38.21      33.78
C      14.11      38.18      35.18
C      13.81      38.70      38.17
C      16.14      38.43      38.44
C      16.87      39.58      38.04
C      17.89      40.14      38.84
C      18.21      39.59      40.11
C      17.44      38.49      40.54
C      16.42      37.94      39.74
C      13.08      38.30      39.32
C      12.06      39.09      39.89
C      11.75      40.37      39.36
C      12.52      40.81      38.26
C      13.53      40.01      37.70
C      19.19      40.14      40.95
C      14.07      32.12      37.68
C      15.85      38.06      31.84
C      10.78      41.20      39.91
C      14.33      23.38      18.68
C      13.27      22.47      18.91
C      13.48      21.08      18.91
C      14.75      20.51      18.65
C      15.83      21.43      18.49
C      15.62      22.83      18.49
C      14.97      18.99      18.76
C      15.19      18.86      20.27
C      16.46      19.12      20.86
C      16.67      19.08      22.25
C      15.60      18.84      23.14
C      14.31      18.66      22.58
C      14.11      18.69      21.19
C      13.81      18.16      18.19
C      16.14      18.44      17.93
C      16.87      17.28      18.32
C      17.89      16.73      17.52
C      18.21      17.27      16.26
C      17.44      18.38      15.82
C      16.43      18.94      16.63
C      13.08      18.57      17.04
C      12.06      17.78      16.47
C      11.75      16.50      17.00
C      12.52      16.06      18.10
C      13.53      16.86      18.67
C      19.19      16.73      15.41
C      14.07      24.75      18.68
C      15.85      18.81      24.52
C      10.78      15.67      16.45
C      14.33      18.93      33.24
C      13.27      19.16      34.14
C      13.48      19.17      35.53
C      14.75      18.90      36.11
C      15.83      18.75      35.19
C      15.62      18.74      33.79
C      14.97      19.01      37.62
C      15.19      20.53      37.75
C      16.46      21.11      37.50
C      16.67      22.50      37.53
C      15.60      23.40      37.78
C      14.31      22.84      37.96
C      14.11      21.44      37.93
C      13.81      18.44      38.45
C      16.14      18.18      38.17
C      16.87      18.57      39.33
C      17.89      17.78      39.89
C      18.21      16.51      39.34
C      17.44      16.08      38.23
C      16.43      16.88      37.68
C      13.08      17.29      38.04
C      12.06      16.73      38.84
C      11.75      17.26      40.11
C      12.52      18.36      40.56
C      13.53      18.92      39.76
C      19.18      15.67      39.88
C      14.07      18.93      31.86
C      15.85      24.77      37.81
C      10.78      16.70      40.95
C      14.33      37.94      23.12
C      13.27      37.71      22.22
C      13.48      37.70      20.83
C      14.75      37.97      20.25
C      15.83      38.12      21.18
C      15.62      38.13      22.57
C      14.97      37.86      18.74
C      15.19      36.34      18.61
C      16.46      35.76      18.86
C      16.67      34.37      18.82
C      15.60      33.47      18.58
C      14.31      34.03      18.40
C      14.11      35.43      18.44
C      13.81      38.42      17.91
C      16.14      38.69      18.19
C      16.87      38.30      17.03
C      17.89      39.09      16.47
C      18.21      40.36      17.02
C      17.44      40.79      18.13
C      16.43      39.99      18.68
C      13.08      39.58      18.32
C      12.06      40.14      17.52
C      11.75      39.61      16.25
C      12.52      38.51      15.80
C      13.53      37.95      16.60
C      19.19      41.20      16.48
C      14.07      37.94      24.50
C      15.85      32.10      18.55
C      10.77      40.16      15.41
C       1.55       0.28      10.81
C       1.54       1.68      10.79
C       0.45       2.40      10.26
C      28.30       1.65       9.73
C      28.29       0.23       9.74
C       0.47      54.48      10.28
C       1.55       1.64      45.55
C       1.54       0.23      45.57
C       0.45      54.47      46.10
C      28.30       0.27      46.63
C      28.29       1.68      46.62
C       0.47       2.39      46.08
C       1.55      45.81       0.02
C       1.54      45.82       1.43
C       0.45      46.35       2.14
C      28.30      46.88       1.40
C      28.29      46.88      54.93
C       0.47      46.34      54.23
C       1.55      11.07       1.39
C       1.54      11.05      54.93
C       0.45      10.52      54.22
C      28.30       9.99       0.01
C      28.29       9.99       1.43
C       0.47      10.53       2.13
C      16.01      27.75      38.29
C      16.01      29.16      38.27
C      14.92      29.87      37.74
C      13.83      29.13      37.21
C      13.82      27.71      37.22
C      14.93      27.01      37.76
C      16.01      29.12      18.07
C      16.01      27.71      18.09
C      14.92      27.00      18.62
C      13.84      27.74      19.15
C      13.82      29.16      19.14
C      14.93      29.86      18.60
C      16.01      18.32      27.50
C      16.01      18.34      28.90
C      14.92      18.87      29.62
C      13.84      19.40      28.88
C      13.82      19.40      27.46
C      14.93      18.86      26.75
C      16.01      38.54      28.86
C      16.01      38.53      27.46
C      14.92      38.00      26.74
C      13.84      37.46      27.49
C      13.82      37.47      28.91
C      14.93      38.01      29.61
C      21.68      15.85      13.99
C      22.76      15.22      13.33
C      23.31      14.02      13.83
C      22.75      13.47      15.00
C      21.66      14.09      15.68
C      21.11      15.30      15.16
C      21.68      41.02      42.37
C      22.76      41.65      43.03
C      23.32      42.85      42.53
C      22.75      43.40      41.37
C      21.66      42.78      40.69
C      21.11      41.57      41.20
C      21.68      42.63      15.60
C      22.76      43.28      14.97
C      23.32      42.79      13.77
C      22.75      41.62      13.22
C      21.66      40.94      13.84
C      21.11      41.46      15.04
C      21.68      14.24      40.76
C      22.76      13.58      41.39
C      23.32      14.08      42.59
C      22.75      15.25      43.14
C      21.66      15.93      42.52
C      21.11      15.41      41.32
C       8.26      41.01      14.00
C       7.19      41.64      13.34
C       6.63      42.84      13.83
C       7.20      43.40      14.99
C       8.28      42.78      15.68
C       8.84      41.57      15.16
C       8.26      15.85      42.37
C       7.19      15.23      43.03
C       6.63      14.03      42.54
C       7.20      13.47      41.37
C       8.28      14.09      40.69
C       8.84      15.29      41.20
C       8.26      14.25      15.60
C       7.19      13.59      14.98
C       6.63      14.08      13.77
C       7.20      15.25      13.22
C       8.28      15.93      13.83
C       8.84      15.42      15.04
C       8.26      42.62      40.76
C       7.19      43.28      41.38
C       6.63      42.79      42.59
C       7.20      41.62      43.14
C       8.28      40.94      42.53
C       8.84      41.45      41.32
N      27.21      54.54       9.22
N       0.52       3.73      10.26
N       0.45      53.14      10.28
N      27.21       2.33      47.15
N       0.52      53.14      46.10
N       0.45       3.73      46.08
N      27.21      47.40      54.29
N       0.52      46.35       3.48
N       0.45      46.33      52.89
N      27.21       9.47       2.08
N       0.52      10.52      52.88
N       0.45      10.54       3.48
N      12.74      27.07      36.69
N      14.99      31.21      37.74
N      14.92      25.67      37.76
N      12.74      29.80      19.67
N      14.99      25.66      18.62
N      14.92      31.20      18.60
N      12.74      19.92      26.81
N      14.99      18.87      30.96
N      14.92      18.85      25.41
N      12.74      36.95      29.55
N      14.99      37.99      25.41
N      14.92      38.02      30.95
N      21.18      13.50      16.80
N      24.33      13.37      13.24
N      20.09      15.90      15.80
N      21.18      43.36      39.56
N      24.33      43.50      43.12
N      20.10      40.97      40.56
N      21.18      39.81      13.25
N      24.33      43.37      13.11
N      20.10      40.81      15.65
N      21.18      17.06      43.11
N      24.33      13.50      43.25
N      20.10      16.05      40.71
N       8.77      43.37      16.80
N       5.61      43.49      13.24
N       9.85      40.97      15.81
N       8.77      13.49      39.56
N       5.61      13.37      43.12
N       9.85      15.90      40.55
N       8.77      17.05      13.24
N       5.61      13.49      13.12
N       9.85      16.06      15.64
N       8.77      39.81      43.12
N       5.61      43.38      43.24
N       9.85      40.81      40.72
