23

Zn       4.88      10.05      15.90
Zn       7.12      11.54      14.27
Zn       4.60      10.33      12.68
Zn       6.94       8.46      13.98
C       5.57       7.81      11.45
C       6.03       7.41      16.61
C       2.26      10.22      14.48
O       5.83      10.08      14.18
O       2.94       9.96      15.53
O       8.88       8.87      13.97
O       8.99      11.09      14.50
O       4.89      12.09      11.73
O       6.95      12.57      12.58
C       9.52       9.94      14.27
C       5.94      12.81      11.85
O       5.37      11.49      17.15
O       6.54      12.77      15.68
O       2.73      10.49      13.32
C       6.03      12.54      16.83
O       6.54       7.61      12.25
O       6.63       7.22      15.49
O       5.28       8.40      16.92
O       4.77       8.81      11.45
