27

C      11.27      17.80       1.55
C       9.62      17.74      -7.05
C      10.16      18.27      -5.76
C      11.44      19.06      -0.94
C      11.00      17.47      -4.97
C      11.07      19.21      -3.30
C      11.19      17.11       2.86
O       9.90      16.56      -7.39
O      10.19      16.39       3.10
H      11.29      16.49      -5.34
O      12.20      17.31       3.67
O       8.87      18.55      -7.73
O      11.57      19.76      -2.13
C      10.41      18.14      -0.70
H       9.69      17.92      -1.48
C      12.37      19.38       0.06
C       9.79      19.55      -5.31
C      11.46      17.93      -3.74
H      12.11      17.32      -3.12
H      13.14      20.12      -0.15
C      10.33      17.52       0.55
H       9.97      21.01      -3.71
C      12.29      18.75       1.30
C      10.25      20.02      -4.09
H       9.54      16.81       0.76
H      13.01      18.96       2.08
H       9.14      20.17      -5.92
