27

C      12.97      11.20      10.85
H      10.56      14.14       7.59
H      13.56      13.81      12.95
H      11.73      12.83      11.55
H      12.29      13.04       9.01
C      14.21      10.56      10.92
H       7.94      10.77       8.15
H      16.18      10.61      11.80
H       9.66       9.68       9.59
C       8.16      13.15       6.89
O       8.44      14.20       6.19
O       6.97      12.68       6.76
O      15.76      13.90      13.98
O      11.99      10.57      10.10
O      17.08      12.10      13.58
H      14.37       9.66      10.33
C       9.15      12.53       7.78
C      14.98      12.27      12.46
C      10.37      13.17       8.03
C      11.06      11.30       9.38
C      13.73      12.90      12.37
C      12.71      12.37      11.59
C      11.33      12.56       8.83
C       8.89      11.27       8.35
C      16.01      12.81      13.38
C      15.21      11.09      11.73
C       9.84      10.65       9.14
