16

H      -0.36       8.41       4.09
H      -4.28       9.89       5.04
H      -5.00       7.56       5.67
H      -1.09       6.08       4.71
C      -1.37       8.21       4.43
C      -1.86      10.66       4.17
C      -3.59       9.05       4.97
C      -2.28       9.28       4.52
C      -3.99       7.76       5.32
C      -3.50       5.30       5.59
C      -1.77       6.92       4.79
C      -3.08       6.69       5.23
O      -0.60      10.86       3.95
O      -2.74      11.57       4.09
O      -4.76       5.10       5.81
O      -2.63       4.39       5.67
