572

Cu      23.68       7.74       5.47
Cu      20.39      11.77      12.36
Cu      26.98      11.77      12.36
Cu      23.68      19.61      13.87
Cu      20.39      15.58       6.98
Cu      23.68       9.87       6.98
Cu      18.54      10.71      13.87
Cu      28.83      10.71      13.87
Cu      18.54      16.64       5.47
Cu      23.68      17.48      12.36
Cu      26.98      15.58       6.98
Cu      28.83      16.64       5.47
Si      11.84      12.72       2.75
Si      11.84       6.84      11.07
Si      35.53      14.63      16.58
Si      30.43      23.45      16.58
Si      16.94       3.90       2.75
Si      35.53      20.51       8.26
Si       6.75       3.90       2.75
Si      40.62      23.45      16.58
H      14.03       3.85       2.43
H      15.45       9.44       3.01
H      22.52      18.00      17.59
H      15.39      17.12       8.23
H      22.79      11.30       2.69
H      19.89      11.42       6.16
H      22.79       6.24      16.65
H      31.60      22.49      14.08
H      17.75      15.25      13.85
H      22.12       8.32      10.54
H      18.96      13.45      17.36
H      15.52       4.43       5.25
H      11.60       8.70       8.83
H      14.07       8.53      12.04
H      21.13       7.75      15.98
H      23.63      18.09       6.16
H      37.26      21.23      10.51
H      19.36       8.29       6.96
H      18.27      12.41       8.71
H      23.74      11.84      15.00
H      32.26      16.13       8.27
H      26.85      20.08       4.05
H      22.79      16.05      16.65
H       8.23       5.99       7.90
H      19.33       5.09       4.03
H      19.68      14.95      19.01
H      22.08      11.71      16.65
H      14.43      13.99       3.45
H      24.58      17.78       0.33
H      23.74      15.51       4.34
H      31.92      21.36      11.44
H      13.69      14.82      11.58
H      27.48      17.73      10.62
H      28.01       9.32       5.49
H      28.41      20.85       6.89
H      27.54      15.84      13.18
H      25.30       8.36      10.62
H      32.54      23.48      12.18
H      15.91       5.73       7.16
H      24.04       2.78       7.30
H      16.55      13.21       4.05
H      26.79      10.85       0.33
H      18.78      16.91       0.19
H      28.59       5.81      15.88
H      28.04      21.85      15.88
H      25.30      18.99       8.71
H      18.96      13.90       1.98
H      34.45      16.44      12.18
H      28.59      21.54       3.45
H      15.76       6.57       2.83
H      29.62       9.21       9.58
H      23.63       9.26      13.18
H      20.52      10.51      17.59
H      29.62      18.14       9.76
H      28.01      12.52      17.59
H      37.72      23.49      16.91
H      32.94       7.92      12.04
H      26.19      14.08       2.69
H      27.69       4.45      11.58
H      23.33      19.54      19.15
H      24.85      22.58      11.10
H      26.79      16.50      19.01
H      16.55      14.14      15.29
H      18.27      14.94      10.62
H      28.01      18.03      13.85
H      22.79      21.11       2.69
H      26.19      13.27      16.65
H       8.16       6.43       2.43
H      14.83       8.04       1.26
H      12.92      10.39       7.90
H      33.30      14.19       4.03
H      26.85       7.27      15.29
H      15.11      13.18      12.45
H      34.04      21.65      10.51
H      38.52      19.31      18.08
H      30.52      14.73      12.38
H      16.80       6.11       9.22
H      33.34      23.78      16.51
H      38.07      23.22      11.44
H      27.69      22.90       7.76
H       7.92       4.85       5.25
H      17.27      19.88       8.27
H      25.29      19.60       5.49
H      28.94      11.05      19.15
H      16.85      10.77       9.58
H      32.99      18.52      18.08
H      19.89      15.93      13.18
H      22.07      14.55      15.00
H      30.10      12.92       3.36
H      25.29       7.75      13.85
H      19.33      22.26      15.30
H      25.25      14.64      15.00
H      26.24       9.70      17.36
H      37.01      17.12      16.91
H      19.68      12.40       0.33
H      19.83      18.85      15.98
H      30.82      19.13       8.23
H      13.69      12.53       7.76
H      19.83       8.50       3.36
H      15.11      14.17       6.89
H      12.09      11.23       5.25
H      33.30      13.16      15.30
H      28.94      16.30       0.19
H      26.24      17.65       1.98
H      21.18      20.12       6.96
H      28.41       6.50      12.45
H      27.54       6.00       6.89
H      35.07      23.70      18.08
H      36.60      16.96      11.44
H      30.57      10.73       2.69
H      33.80      16.98      16.51
H      18.78      10.43      19.15
H      24.85       4.77       8.23
H      33.68      15.86      10.11
H      20.58       3.93      10.11
H      30.10      14.43      15.98
H      16.85      16.58       9.76
H      25.85      17.88      17.36
H      11.39       3.64       1.26
H       8.85       3.87       7.16
H      39.45      20.78      16.51
H      24.58      21.04       9.58
H      15.39      10.23      11.10
H      31.98      13.88       5.94
H      30.57      16.61      16.65
H      22.52       9.35       1.75
H      19.36      19.06      12.38
H      19.72       6.39       5.94
H      19.36       6.60      13.40
H      28.04       5.50       3.45
H      17.27       7.47      11.07
H      22.08      15.64       2.69
H      16.80      21.24      10.11
H      14.43      13.36      15.88
H      39.14      17.90      16.32
H      19.36      20.75       5.94
H      29.67       5.59       7.76
H      27.54      21.35      12.45
H       7.78       8.66       3.01
H      24.04      24.57      12.04
H      21.18       7.23      12.38
H      20.58      23.42       9.22
H      21.52      22.33      11.07
H      30.52      12.62       6.96
H      21.52       5.02       8.27
H      25.25      12.71       4.34
H      27.65       7.73       4.05
H      31.46      18.69      16.32
H      22.12      19.02       8.80
H      14.07      18.81       7.30
H      19.83       9.65       8.80
H      39.21      22.92      14.08
H      39.59      21.62      12.18
H      32.26      11.22      11.07
H      29.10      12.35       8.80
H       9.65       3.57       2.83
H      33.68      11.49       9.22
H      20.52      16.84       1.75
H      35.77      16.12      14.08
H      17.69      18.17      16.65
H      10.35       5.70       8.83
H      31.98      13.47      13.40
H      32.94      19.43       7.30
H      28.01      14.83       1.75
H      31.85      20.92      16.91
H      24.58       6.31       9.76
H      23.33       7.81       0.19
H      21.13      19.60       3.36
H      19.72      20.96      13.40
H      14.38       4.13       7.90
H      13.57       6.12       8.83
H      18.43      21.74       4.03
H      19.83      17.70      10.54
H      27.48       9.62       8.71
H      29.10      15.00      10.54
H      35.98      24.94      16.32
H      27.54      11.51       6.16
H      29.67      21.75      11.58
H      22.07      12.80       4.34
H      10.11      10.37       2.83
H      27.65      19.62      15.29
H      30.82       8.22      11.10
H      35.28      18.65      10.51
H      12.29       2.41       3.01
H      10.77      10.91       7.16
H      25.85       9.47       1.98
H       9.30       8.83       1.26
H      13.33      10.23       2.43
H      17.69       9.18       2.69
H      24.58       9.57      19.01
H      18.43       5.61      15.30
H      17.75      12.10       5.49
C      38.93      16.98      16.23
C      28.77      14.92      14.52
C      22.41       9.51       0.82
C      20.00      14.49       4.40
C       9.75       9.61       0.97
C      18.03       7.07       7.92
C      29.20      18.79      10.30
C      22.04      16.85       0.39
C      31.91      15.84       9.10
C      38.32      14.28      15.97
C      19.74      13.37       2.12
C      32.12      20.97      10.60
C      22.92      16.05       2.55
C      19.44       5.66      13.53
C      14.63      13.07       3.36
C      39.53      26.04      15.97
C      29.85      19.98      10.59
C      32.08      24.01      12.81
C      13.98      10.83       2.76
C      26.07       5.18      10.59
C      17.70      19.71       9.10
C      33.43      17.74      18.37
C      26.92       7.62      11.62
C      17.78      12.83      12.20
C      24.96      23.40      10.64
C      21.25      20.57       7.79
C      34.66      14.61      14.87
C      14.23       2.99       2.76
C      31.52      23.43      13.94
C      31.00      20.65      16.58
C      21.59      12.72       3.52
C      25.40      17.24       2.12
C       9.05       7.53      11.20
C      21.91       6.78       9.23
C      27.31       7.84       7.72
C      21.97      19.60       3.79
C      22.04      10.50      18.95
C      12.64       4.07      11.20
C      20.17      12.48       1.15
C       9.45       3.59       1.90
C      15.29       7.27       0.97
C      15.14      15.86      10.59
C      26.48      16.13      18.19
C      25.78       7.56      10.82
C      25.33      21.36       3.59
C      20.89      22.53       9.14
C      26.24      16.45       4.40
C      26.12      14.20      16.79
C      31.53      23.74      19.23
C      29.20       8.56       9.04
C      30.55      11.76      10.11
C      30.77      19.33      16.23
C      20.79      21.87       7.92
C      10.01       6.78      10.52
C      34.56      15.67      17.87
C      21.25       6.78      11.55
C      27.20      22.11       7.95
C      36.33      23.28       8.14
C      32.23      15.27      11.42
C      28.44      17.30      14.28
C      29.67      12.19       3.79
C      17.41       6.83       9.14
C      25.91       8.14       7.14
C      31.17      20.22       9.92
C      39.53      20.96      17.44
C      12.37       9.01       9.29
C      21.45       5.47       9.10
C      17.85       6.18       6.73
C      32.75      15.68      10.20
C      25.15      16.57       3.31
C      19.44      21.69       5.80
C      28.74      21.21      15.97
C      20.72      16.86       0.82
C      18.93       8.12       7.79
C      20.06       9.89       4.82
C      16.82      13.90      11.62
C      28.15      16.00      13.88
C       7.84       3.92       5.39
C      10.49       3.63       0.97
C      28.44      10.05       5.06
C      37.14      22.05      10.05
C      27.93      12.70      18.52
C      25.46      16.39      16.03
C      26.24      10.89      14.94
C      37.91      24.36      16.58
C      20.17      14.87      18.19
C      29.59      15.78       8.03
C      23.91      15.97       3.52
C      27.63      20.89       7.44
C      36.83      17.34      10.60
C      27.25      13.51       0.39
C      36.39      18.89       8.82
C      21.59      14.63      15.82
C      16.20      16.10      15.75
C      20.72      10.49      18.52
C      37.62      23.23      10.60
C      20.79       5.48      11.42
C      21.30      15.64      17.98
C      28.51      19.88      15.62
C      26.12      13.15       2.55
C      30.03      12.18       8.88
C      23.17      10.63      17.98
C      20.00      12.86      14.94
C      10.87      11.68       1.47
C      17.34      12.44       8.52
C      31.17       7.13       9.41
C      27.37       8.98      12.20
C      39.24      24.77      16.46
C      18.91      17.74       8.03
C      27.63       6.46      11.90
C       9.70       6.21       9.29
C      25.61      23.43       9.41
C      25.92      10.41       2.12
C      20.45      13.49       3.31
C      33.39      21.14      10.05
C      14.28      16.88       9.92
C      36.88      25.22      16.23
C      24.82      17.27      14.94
C      38.98      20.08      18.37
C      32.75      11.67       9.14
C      27.96      20.70      11.90
C      15.55       2.58       2.88
C      19.41       9.23       3.79
C      34.17      23.71      18.37
C      18.03      20.28      11.42
C      35.00      15.59      13.94
C      29.34      17.53      15.31
C      21.91      20.57      10.11
C      26.92      19.73       7.72
C      21.13      17.72       5.29
C      23.46      18.70       5.46
C      13.68      12.18       2.88
C       8.13       3.58       1.47
C      22.96      20.50       3.39
C      24.20      20.49       4.03
C      29.23       6.41       7.95
C      17.52      16.64      15.31
C      31.47       7.70      10.64
C      16.50      11.46       9.04
C      18.60      18.66       9.23
C      40.29      21.75      12.81
C      29.96      16.46      15.95
C      22.01      11.83       2.55
C      40.20      22.09      17.87
C      27.37      18.37       7.14
C      40.06      22.52      13.94
C      18.14      17.71      15.95
C      24.45      19.60       5.06
C      25.15      10.78      16.03
C      26.58      14.75      17.98
C      22.22       8.64      14.52
C      30.73      25.58      14.67
C      18.91       9.61      11.31
C      18.17      15.98      14.28
C      19.22      18.42      10.45
C      15.90      12.60       3.71
C      31.82      23.77      17.87
C      30.03      15.17      10.45
C      25.61       3.92       9.92
C      33.09      14.98      12.61
C      16.64       4.99       0.11
C      37.36      15.17      16.46
C      25.56      15.01      15.82
C       8.44       6.38       8.74
C      25.91      19.21      12.20
C      25.36      21.01       9.04
C      37.67      16.52      16.58
C      22.41      17.83      18.52
C      16.60       5.60       6.53
C      17.85      21.17      12.61
C      30.87      15.01      11.55
C      33.91      16.82      17.44
C      31.91      11.51      10.23
C      16.52       5.26       1.47
C      16.37       4.83       5.39
C      14.62       9.92      10.64
C      26.48      11.22       1.15
C      22.55       7.50       8.03
C      27.96       6.65       7.44
C       7.05       1.77       4.67
C      19.44      10.97       5.46
C      16.20      11.25       3.59
C      34.73      15.43      19.23
C      15.90      14.75      15.62
C      13.84       8.91      11.20
C      25.92      16.94      17.22
C      28.51       7.47       3.71
C      31.47      19.65       8.70
C       7.08       8.02       3.10
C      26.65       6.40      15.62
C      18.60       8.69      10.11
C      17.34      14.91      10.82
C      29.85       7.37       8.75
C      26.58      12.59       1.36
C      24.41      17.32       1.15
C      33.53      13.82      14.67
C      17.52      10.71       4.03
C      20.89       4.82      10.20
C      19.44      16.38      13.88
C      25.40      10.11      17.22
C      21.46       9.44       5.29
C      27.93      18.55      10.82
C      21.97       7.75      15.55
C       6.30       5.76       2.88
C      26.65      20.95       3.71
C      20.12       4.87      12.61
C      27.25      13.84      18.95
C      34.22      15.77      12.81
C      33.69      20.57       8.82
C      10.53      11.58       6.53
C      28.77      12.42       4.82
C      33.14      23.76      17.44
C      27.93      14.65       0.82
C      21.13       9.63      14.05
C      29.23      20.94      11.39
C      18.17      11.37       5.06
C       8.39       3.34       6.53
C      15.85       6.39       1.90
C      32.75      14.01      13.53
C      29.52       8.41       3.59
C      13.15      10.01       8.74
C      23.17      16.72       1.36
C      29.52      18.94      15.75
C      18.63       5.22       4.67
C      21.46      17.91      14.05
C      10.23      10.53       1.90
C      19.74      13.98      17.22
C      25.33       5.98      15.75
C      27.20       5.24      11.39
C      21.76      16.68      18.95
C      25.46      10.96       3.31
C      24.82      10.08       4.40
C      29.59      11.57      11.31
C      23.91      11.38      15.82
C      32.73      19.82       8.14
C      14.28      10.47       9.41
C      27.31      19.50      11.62
C      15.46      13.86      11.90
C      24.20       6.85      15.31
C      13.46       5.30       9.29
C      26.07      22.17       8.75
C      15.14      11.49       8.75
C      32.23      12.08       7.92
C      25.36       6.34      10.30
C      12.71       8.46      10.52
C      14.62      12.50       7.95
C      10.98      12.74       4.47
C       7.16       3.14       4.47
C      29.98      21.59      16.46
C      28.15      11.35       5.46
C      19.41      18.12      15.55
C      42.32      22.13      14.67
C      24.45       7.75      14.28
C      21.45      21.88      10.23
C      21.30      11.71       1.36
C      17.39       4.64       4.47
C      16.82      13.45       7.72
C      28.46      13.86       5.29
C      24.96       3.95       8.70
C      25.56      12.33       3.52
C      22.01      15.52      16.79
C      17.41      20.52      10.20
C      29.34       9.82       4.03
C      30.85      24.21      14.87
C      27.93       8.80       8.52
C      41.07      22.71      14.87
C      18.93      19.23      11.55
C      18.86      21.36      13.53
C      28.46      13.49      14.05
C      15.46      13.48       7.44
C      36.50      22.07       8.82
C      18.86       5.99       5.80
C      22.96       6.85      15.95
C      12.81       5.28      10.52
C      40.32      22.36      19.23
C      21.81      19.92       8.88
C      22.92      11.30      16.79
C      33.09      12.36       6.73
C      20.12      22.48       6.73
C      11.04      11.91       0.11
C      15.25      10.37       3.10
C      20.45      13.86      16.03
C      29.96      10.89       3.39
C       7.84       3.61       0.11
C      16.50      15.89      10.30
C      19.22       8.93       8.88
C      22.22      18.71       4.82
C      17.78      14.52       7.14
C      14.62      17.43       8.70
C      24.41      10.03      18.19
C      13.20       2.12       3.10
C      22.55      19.84      11.31
C      21.81       7.43      10.45
C      32.75      13.34       5.80
C      30.87      12.34       7.79
C      17.70       7.64      10.23
C      20.06      17.46      14.52
C      21.76      10.66       0.39
C      37.52      18.44       8.14
C      29.67      15.15      15.55
C      23.46       8.64      13.88
C       5.05       6.14       3.36
C       9.85      13.53       4.67
C      15.84       1.30       3.36
C       7.31       6.69       2.76
C      36.05      18.34      10.05
C      25.78      19.79       8.52
C      11.32      11.76       5.39
C      30.55      15.59       9.23
C      13.94       4.12       8.74
C      14.62      14.84      11.39
C      18.14       9.63       3.39
O      30.00      11.13      12.38
O      28.37      11.80      10.99
O      25.49       9.30       7.47
O      19.00      13.06      11.87
O      18.32       9.48      12.38
O      19.72      10.55      10.99
O      25.84      11.59      13.94
O      25.37      20.00      12.98
O      25.37       7.35       6.36
O      27.65      13.87       6.28
O      20.80      14.50       5.40
O      17.37      11.97      12.98
O      21.88      10.14       6.28
O      19.05      12.10      15.13
O      22.73      20.42      12.38
O      21.53      17.01       6.28
O      26.56       9.92      11.87
O      30.00      16.22       6.96
O      27.65      13.47      13.06
O      22.00       8.45       4.81
O      20.80      12.85      13.94
O      22.00      18.90      14.53
O      25.49      18.04      11.87
O      20.00      17.74       4.81
O      21.53      10.34      13.06
O      22.73       6.93       6.96
O      21.88      17.21      13.06
O      20.00       9.60      14.53
O      28.32       9.06      12.98
O      28.37      15.55       8.35
O      26.56      17.43       7.47
O      27.37      10.45      15.13
O      22.96      18.67      10.99
O      25.84      15.76       5.40
O      22.96       8.68       8.35
O      29.05      14.83       4.81
O      24.64       8.87       4.21
O      24.64      18.48      15.13
O      17.37      15.38       6.36
O      19.00      14.29       7.47
O      19.05      15.25       4.21
O      29.05      12.52      14.53
O      28.32      18.29       6.36
O      24.41      16.58      13.94
O      24.41      10.77       5.40
O      27.37      16.90       4.21
O      19.72      16.80       8.35
O      18.32      17.87       6.96
