92

V       1.43       3.99       4.13
V       5.83      12.61      12.36
V       5.06       4.31       4.11
V       2.20      12.30      12.38
H       6.79       8.71      13.00
H       0.46       7.90       3.49
H       3.20       0.98      11.73
H       4.06      15.62       4.76
H       1.06      10.20       3.86
H       6.20       6.40      12.63
H       4.62      13.31       4.38
H       2.64       3.29      12.11
H       6.48       4.20       0.34
H       0.78      12.40      16.15
H       2.88       4.11       7.91
H       4.37      12.50       8.58
C       3.46       2.39       2.42
C       3.80      14.22      14.07
C       7.09       5.91       5.83
C       0.17      10.69      10.66
C       3.46       2.54       6.00
C       3.80      14.07      10.49
C       7.09       5.76       2.24
C       0.17      10.84      14.25
C       0.04       8.80       8.76
C       7.22       7.80       7.73
C       3.67      16.10      15.97
C       3.59       0.50       0.51
C       6.55       6.29      16.02
C       0.71      10.32       0.47
C       2.95       3.40       8.72
C       4.30      13.20       7.77
C       6.29       5.83      14.71
C       0.96      10.78       1.78
C       2.72       3.86      10.03
C       4.54      12.74       6.46
C       6.38       6.73      13.65
C       0.87       9.88       2.84
C       2.81       2.96      11.09
C       4.45      13.64       5.40
C       6.73       8.06      13.87
C       0.53       8.54       2.62
C       3.13       1.63      10.87
C       4.12      14.98       5.62
C       6.99       8.54      15.17
C       0.27       8.07       1.32
C       3.38       1.14       9.56
C       3.88      15.46       6.93
C       6.89       7.64      16.27
C       0.36       8.97       0.22
C       3.28       2.05       8.47
C       3.97      14.56       8.02
C       0.10       9.89      15.39
C       7.16       6.71       1.10
C       3.72      15.01       9.34
C       3.53       1.59       7.15
C       0.10       9.66       9.63
C       7.15       6.95       6.86
C       3.73      15.25      15.10
C       3.53       1.36       1.39
N       5.95       4.45      14.48
N       1.31      12.16       2.01
N       2.39       5.25      10.26
N       4.86      11.36       6.22
O       4.63       2.99       5.55
O       2.63      13.61      10.94
O       1.00       5.31       2.70
O       6.25      11.29      13.79
O       2.25       2.73       2.85
O       5.01      13.87      13.64
O       5.88       5.57       5.39
O       1.38      11.03      11.10
O       2.24       2.83       5.55
O       5.02      13.77      10.94
O       5.87       5.47       2.70
O       1.39      11.13      13.79
O       0.99       5.41       5.41
O       6.26      11.19      11.08
O       4.62       2.89       2.83
O       2.64      13.71      13.66
O       3.42       5.00       4.07
O       3.84      11.61      12.42
O       7.05       3.30       4.17
O       0.21      13.30      12.32
O       5.65       4.04      13.28
O       5.95       3.59      15.45
O       1.61      12.57       3.21
O       1.31      13.02       1.04
O       2.13       5.67      11.47
O       2.37       6.10       9.28
O       5.13      10.94       5.02
O       4.89      10.50       7.21
