54

Co      -1.33       0.46       7.78
Co       0.96       0.58       9.57
Co       3.24      -1.03       8.78
Co       3.63       7.08       5.28
Co       1.34       6.96       3.49
Co      -0.94       8.57       4.28
H       3.34      -3.20       6.16
H      -1.23       3.81       7.22
H       1.06      -0.61      12.74
H      -1.05      10.74       6.91
H       3.53       3.73       5.84
H       1.23       8.15       0.32
C       0.65      -1.98       7.93
C      -0.29      -2.87       7.21
C       5.20      -2.53       7.01
C       4.39      -3.45       6.33
C       2.94       1.67       7.38
C       2.00       2.73       6.97
C       0.62       2.74       7.37
C      -0.19       3.79       6.91
C      -1.62       0.32      10.82
C      -2.57       0.14      11.94
C       2.92      -0.20      11.75
C       2.11      -0.33      12.88
C       1.65       9.52       5.13
C       2.59      10.41       5.85
C      -2.90      10.07       6.06
C      -2.09      10.99       6.74
C      -0.64       5.88       5.68
C       0.30       4.81       6.08
C       1.68       4.80       5.69
C       2.49       3.75       6.15
C       3.92       7.22       2.24
C       4.87       7.41       1.12
C      -0.63       7.75       1.31
C       0.19       7.88       0.18
O       0.20      -0.85       8.36
O       1.86      -2.34       8.12
O       4.65      -1.36       7.42
O       2.49       0.73       8.15
O       4.15       1.68       6.97
O       0.07       1.80       8.17
O      -2.07       0.12       9.62
O      -0.41       0.66      11.03
O       2.37      -0.42      10.53
O       2.10       8.39       4.70
O       0.45       9.88       4.93
O      -2.35       8.90       5.64
O      -0.20       6.81       4.90
O      -1.84       5.87       6.09
O       2.23       5.74       4.89
O       4.37       7.43       3.44
O       2.71       6.87       2.03
O      -0.08       7.97       2.53
