13

Co      13.04      13.99      13.59
C      15.87      13.19      12.76
C      10.22      14.81      14.42
C      15.87      15.00      14.20
C      10.21      13.00      12.99
N      10.91      13.89      13.72
N      15.17      14.11      13.46
O      12.71      15.02      11.72
O      13.10      12.84      11.78
C      13.14      14.07      16.07
C      12.95      13.92      11.10
O      13.37      12.96      15.45
O      13.00      15.15      15.39
