16

C       1.13       4.52       8.11
C       1.22       5.78       8.69
H       0.97       2.38       8.48
C       1.08       5.90      10.07
O      -0.48       4.05      12.64
O       2.26       5.04       6.12
C       0.85       4.76      10.86
O       0.98       3.23       6.22
C       1.38       4.32       6.70
C       0.33       4.92      12.20
H       1.37       6.67       8.09
O       0.45       6.06      12.74
F       0.69       2.37      11.02
C       0.98       3.38       8.91
C       0.86       3.49      10.28
H       1.07       6.90      10.50
