22

C       5.44       9.35       0.69
C       7.88       9.44       0.71
C      10.32       9.50       0.68
C      10.32       9.46      -0.69
C       5.44       9.58      -0.68
C       9.22      10.07       2.77
C       9.21       8.87      -2.77
C       6.65       9.66      -1.38
C       6.65       9.28       1.38
C       9.12       9.41      -1.40
C       9.12       9.54       1.40
C       7.88       9.50      -0.71
F       4.26       9.71      -1.35
F       4.27       9.22       1.36
H       6.60       9.88      -2.43
H       6.60       9.06       2.44
H      11.29       9.57       1.17
H      11.28       9.40      -1.18
O       8.17      10.55       3.31
O       8.17       8.39      -3.31
O      10.37      10.35       3.22
O      10.37       8.60      -3.22
