16

C       1.35       4.36       2.75
H       1.97       6.50      -1.28
O       0.46       6.03      -3.34
C       1.46       5.73      -0.72
H       2.28       6.38       1.15
C       1.60       5.68       0.67
C       0.30       4.91      -2.76
H      -0.48       3.05       1.30
C       0.93       4.70       1.41
H      -0.69       3.09      -1.06
C       0.06       3.81       0.76
C      -0.03       3.82      -0.61
C       0.66       4.77      -1.36
O      -0.47       4.02      -3.22
O       2.27       5.04       3.31
O       1.00       3.23       3.18
