40

H       2.70       7.71      34.00
H       7.24       4.50      32.15
H       2.67       6.40      29.62
H       2.13       7.48      31.78
H       6.33       3.74      28.01
H       7.82       3.42      30.01
C       5.42       5.41      31.43
C       3.91       6.76      32.79
C       6.60       4.62      31.29
C       4.89       4.89      29.07
C       4.53       5.53      30.30
C       5.11       6.05      32.66
C       3.34       6.30      30.46
C       3.04       6.88      31.67
C       4.03       4.95      27.86
C       6.07       4.18      28.97
C       6.91       4.02      30.09
H       8.47       7.71      32.47
H       3.92       4.50      34.31
H       8.50       6.40      36.85
H       9.04       7.48      34.69
H       4.84       3.74      38.46
H       3.35       3.42      36.46
C       5.75       5.41      35.04
C       7.26       6.76      33.68
C       4.57       4.62      35.18
C       6.28       4.89      37.40
C       6.64       5.53      36.17
C       6.06       6.05      33.80
C       7.82       6.30      36.00
C       8.13       6.88      34.80
C       7.14       4.95      38.61
C       5.09       4.18      37.50
C       4.26       4.02      36.38
O       4.57       5.21      26.72
O       2.77       4.69      27.93
O       3.63       7.34      33.97
O       6.60       5.21      39.74
O       8.40       4.69      38.54
O       7.54       7.34      32.49
