33

H       2.30       9.78       7.43
C       2.48      11.85       8.22
C       5.03      16.22      13.17
H       5.63      11.72       9.13
C       4.62      11.54       8.78
C       2.96      14.80       8.67
H       2.36      14.60       7.78
H       1.56      18.26      10.24
C       3.85      16.37      10.31
C       6.78      15.41      12.06
C       3.05      16.09       9.20
H       1.42      19.08       6.11
C       2.87      10.58       7.90
H       5.03      13.22      10.90
H       4.00      16.41      13.44
C       7.18      15.91      13.28
H       8.17      15.94      13.72
C       1.72      18.20       9.16
H       1.55      12.39       8.07
H       2.85      16.69       6.51
N       6.08      16.39      13.96
N       3.60      12.46       8.79
H       3.97      17.39      10.67
H       7.31      15.00      11.22
N       4.20      10.40       8.25
N       5.41      15.62      12.00
N       2.38      17.16       8.56
N       1.27      19.05       8.25
C       1.66      18.55       7.02
C       4.57      15.33      10.90
C       3.69      13.78       9.29
C       4.49      14.03      10.40
C       2.34      17.37       7.19
