22

H       4.33      11.31      16.01
H       2.04       7.66      15.99
H       3.70       5.15      19.70
H       2.48       9.90      15.06
C       4.12      10.32      16.42
O       7.23       9.56      19.09
C       3.57       7.78      17.51
C       3.28       6.51      18.11
O       6.74       8.66      21.09
C       3.09       9.53      15.89
O       2.19       5.45      16.26
O       1.53       4.91      18.34
C       6.49       8.84      19.86
C       5.32       8.13      19.24
H       5.65      10.49      17.92
H       5.46       6.62      20.73
C       4.61       8.60      18.08
C       4.94       6.93      19.82
C       2.27       5.56      17.53
C       3.94       6.12      19.26
C       2.82       8.28      16.41
C       4.87       9.87      17.49
