22

C      -0.50      11.84      19.39
C       0.80      14.05      19.40
C       2.10      16.15      19.43
H      -0.73      13.93      20.93
H       2.70      12.89      16.19
C       0.52      12.78      18.81
C       0.06      14.56      20.51
C       3.72      15.11      17.06
O       4.46      15.84      17.83
C       1.85      14.87      18.84
O      -0.58      11.72      20.66
C       2.18      13.20      17.10
O       3.97      14.93      15.83
O      -1.23      11.18      18.58
C       1.18      12.39      17.66
H       0.93      11.43      17.22
H       1.56      17.59      20.91
H       2.89      16.76      19.00
C       1.36      16.60      20.50
C       2.55      14.40      17.68
C       0.32      15.80      21.03
H      -0.29      16.18      21.86
