22

H       1.43       1.23       8.60
H       3.27       2.64       9.55
H       3.71       4.89       8.62
C       2.93       4.26       8.20
O      -1.47       2.98       5.52
H       0.10       2.06       6.69
O       3.56       7.10       8.35
C       0.44       4.41       5.37
O       4.22       7.64       6.27
C       2.47       6.03       6.51
O      -0.99       3.88       3.52
H       0.29       5.92       3.89
C       2.18       4.76       7.10
H       2.05       7.39       4.91
C       0.89       2.67       7.12
C       1.63       2.22       8.19
C      -0.74       3.70       4.75
C       3.48       6.98       7.08
C       1.14       3.94       6.53
C       2.66       3.01       8.73
C       1.81       6.42       5.36
C       0.81       5.61       4.79
