29

N      10.05       9.16       2.44
N       3.40       8.36       9.80
N       7.01       4.54       5.88
C       6.20       5.10       6.78
C       8.27       8.95       4.07
H       8.76      10.71       2.93
H      11.28       7.50       2.24
H       2.37       6.56       9.80
H       6.88       8.39       6.29
H       3.86       5.42       8.20
H       6.28       9.01       8.16
H      10.08       6.08       3.84
H       4.64      10.02       9.68
C       9.00       9.68       3.15
H       5.63       4.41       7.40
H       8.37       4.84       4.36
C      10.41       7.88       2.76
C       3.24       7.07       9.39
H       7.42       9.43       4.54
C       8.58       7.59       4.33
C       5.21       7.11       7.97
C       7.76       6.75       5.21
C       6.91       7.31       6.17
C       4.09       6.43       8.50
C       7.76       5.34       5.11
C       6.10       6.51       6.98
C       5.40       8.43       8.45
C       9.71       7.09       3.65
C       4.50       9.00       9.33
