29

N       6.12       0.57      12.55
H       4.84      -0.99      13.05
H       7.34       2.23      12.34
N       3.08       5.19      16.00
H       2.94       1.34      16.40
C       5.08       0.05      13.26
H       2.37       0.73      18.29
H       6.14       3.65      13.93
H       0.72      -0.29      19.81
C      -0.68       2.65      19.53
C       6.47       1.85      12.86
H       4.43       4.90      14.46
H       1.71       5.33      17.53
H       3.50       0.29      14.66
C       4.65       2.14      14.43
C       1.29       2.62      18.10
C       3.83       2.98      15.32
C       2.98       2.42      16.29
C       0.18       3.30      18.64
C       2.18       3.23      17.10
C       1.49       1.31      18.58
C       5.78       2.64      13.75
C       0.59       0.72      19.45
C       3.82       4.39      15.22
C       2.27       4.63      16.91
C       4.34       0.78      14.18
N      -0.52       1.37      19.92
H      -1.54       3.16      19.94
H      -0.06       4.32      18.35
