29

H      13.14       8.74      17.33
H      10.60      11.94      18.00
C      12.89       9.78      17.11
H      15.01      11.07      13.97
C      11.47      11.56      17.49
C      13.30      11.86      15.92
H      11.79      13.36      16.40
C      16.68      12.35      12.28
H      13.49      14.62      15.88
H      16.25      15.05      12.85
C      14.12      12.70      15.04
H      14.47      10.03      15.71
C      14.97      12.15      14.08
N      11.84      10.29      17.81
C      17.79      13.03      11.73
N      14.86      14.92      14.37
C      15.78      12.95      13.27
C      16.48      11.04      11.80
C      12.16      12.35      16.59
C      14.12      14.12      15.14
C      15.68      14.36      13.47
C      13.62      10.51      16.19
C      17.38      10.46      10.93
N      18.48      11.10      10.45
H      19.50      12.90      10.44
H      18.02      14.05      12.04
C      18.64      12.39      10.85
H      15.61      10.45      12.10
H      17.25       9.44      10.58
