29

C       7.70       7.06       0.72
C       5.75       7.11       2.15
C       3.21       6.76       4.93
C       4.05       7.31       3.96
C       6.85       6.42       1.60
C       4.86       6.51       3.15
C       5.55       8.43       1.67
C       1.26       7.09       6.49
C       6.45       9.00       0.80
C       3.21       5.34       5.04
C       4.76       5.10       3.34
C       2.70       8.95       6.08
N       0.92       9.16       7.70
N       7.55       8.35       0.32
N       3.95       4.54       4.25
C       0.57       7.88       7.39
H       5.32       4.41       2.72
H       2.22      10.71       7.22
H      -0.30       7.50       7.91
H       8.57       6.55       0.30
H       4.08       8.40       3.85
H       7.08       5.40       1.90
H       4.68       9.01       1.97
H       0.90       6.08       6.31
H       6.32      10.02       0.45
H       2.61       4.84       5.79
C       1.97       9.68       7.00
H       3.55       9.43       5.61
C       2.39       7.60       5.82
