36

O       7.98      17.73      11.94
C       4.01      13.96      15.33
O       9.06      18.00      13.91
C       8.04      17.54      13.22
H       7.41      15.09      12.33
H       4.73      16.35      16.32
H       3.39      11.06      11.70
H       5.39       9.66      11.32
H       7.63      10.48      11.99
H       7.87      12.70      13.04
H       3.61      13.28      12.75
H       5.87      19.45      14.02
H       6.35      21.59      15.16
H       7.23      17.31      17.51
H       7.62      19.46      18.67
H       7.19      21.60      17.50
C       5.11      14.83      14.84
C       5.90      14.45      13.73
C       6.86      15.35      13.23
C       7.08      16.59      13.84
C       6.32      16.95      14.98
C       5.33      16.07      15.46
C       6.55      18.23      15.68
C       6.27      19.45      15.03
C       6.54      20.66      15.68
C       7.01      20.66      16.99
C       7.25      19.46      17.65
C       7.03      18.24      17.00
C       5.75      13.11      13.07
O       2.80      14.46      15.47
O       4.26      12.70      15.61
C       4.49      12.66      12.64
C       4.36      11.41      12.02
C       6.89      12.33      12.80
C       6.75      11.09      12.18
C       5.49      10.62      11.80
