36

C       6.44       5.37      36.17
C       4.07       7.75      38.76
C       4.82       6.67      39.27
C       5.66       5.95      38.42
C       5.74       6.28      37.06
C       5.02       7.38      36.56
C       4.12       8.03      37.39
C       5.36       7.98      35.25
C       6.23       9.07      35.18
C       6.53       9.65      33.95
C       5.97       9.14      32.78
C       5.12       8.03      32.83
C       4.81       7.45      34.07
C       4.73       6.29      40.70
C       5.85       6.42      41.54
C       5.78       5.99      42.86
C       4.60       5.42      43.36
C       3.48       5.29      42.53
C       3.55       5.72      41.20
O       6.05       4.12      36.14
O       7.16       5.85      35.19
H       6.26       5.14      38.81
H       3.54       8.86      36.99
H       6.64       6.09      43.51
H       4.55       5.08      44.39
H       2.57       4.86      42.91
H       2.67       5.65      40.57
H       6.76       6.85      41.16
H       6.65       9.49      36.09
H       7.20      10.50      33.90
H       4.17       6.58      34.10
H       4.69       7.63      31.93
H       6.20       9.59      31.82
O       3.98      10.03      39.41
O       2.84       8.52      40.68
C       3.58       8.80      39.63
