36

C      12.70       2.41      33.40
C      17.52       0.15      31.50
O      12.37       3.40      32.60
O      11.94       2.07      34.43
O      17.80      -0.86      32.30
O      18.06       0.23      30.29
H      15.05      -0.06      30.40
H      15.14       2.85      34.40
H      11.52      -3.21      32.40
H       9.55      -2.26      31.23
H       9.59       0.08      30.40
H      11.60       1.48      30.76
H      13.55      -1.83      32.72
H      17.14       4.31      32.38
C      13.91       1.66      33.10
C      13.91       0.76      32.02
C      15.09       0.53      31.31
C      16.32       0.95      31.82
C      16.34       1.80      32.95
C      15.13       2.14      33.58
C      17.58       2.46      33.39
C      17.79       3.81      33.07
C      18.82       4.52      33.70
H      18.26       0.78      34.57
C      19.47       2.52      34.91
C      18.43       1.81      34.30
C      12.72      -0.08      31.75
C      12.69      -1.41      32.21
C      19.65       3.88      34.63
C      11.55      -2.19      32.02
C      10.46      -0.34      30.90
C      11.60       0.45      31.09
C      10.43      -1.66      31.37
H      18.96       5.56      33.47
H      20.13       2.03      35.61
H      20.42       4.44      35.13
