127

Cu       4.86       3.36       6.31
Cu       4.87       6.05       6.50
H       0.62       6.85       6.98
H       0.42       2.57       6.44
H       9.38       3.49       4.62
H       0.65       3.80       4.54
H       9.07       5.95       8.10
H       8.71       0.71       8.06
H      10.39       0.95       7.59
H       9.96       0.13       5.32
H       9.46      -1.07       6.57
H       8.22      -0.08       5.71
H       1.40       6.41       4.65
H       9.11       5.17       4.28
H       0.82       6.69       2.37
H      -0.26       5.26       2.45
H       1.53       5.05       2.58
H       4.62       9.09       1.44
H       7.00       8.40       1.84
H       6.75      10.17       1.61
H       7.37       9.17       0.25
H       5.87       7.23      11.03
H       3.65       8.32       9.94
H       4.31       8.72      11.56
H       5.11       7.18       2.48
H       3.02       7.48      11.42
H       6.69       2.07       8.01
H       4.88       0.43       9.52
H       6.59      -0.07       9.84
H       6.14       1.60      10.15
H       7.99       3.84       8.72
H       8.61       2.84      10.60
H      -0.69       3.46      10.34
H       9.75       1.85       9.67
H       3.70       1.63       3.46
H       4.60       2.95       1.94
H       1.81       0.15       3.55
H       1.30       1.85       3.64
H       1.38       0.88       5.16
H       6.64       9.16       9.94
H       8.04       9.35       8.81
H       9.27       7.84       9.85
H       8.12       7.98      11.20
H       7.92       6.64      10.01
H       2.71       2.39       8.48
H       1.63       1.31       7.58
H       3.98       0.92      12.34
H       0.61       0.52       9.65
H       2.39       0.48       9.84
H       1.45       1.82      10.61
H       9.11       7.99       7.28
H       9.08       8.81       5.14
H       9.30       7.22       4.44
H      -0.28       8.04       5.34
H      -0.21       6.40       9.36
H       1.72       5.93      10.38
H       2.25       6.78       8.86
H       4.03       2.38      10.42
H       2.28       4.96       9.02
H       7.31      -1.13       8.12
H       2.59      10.55       4.39
H       3.38       8.31       5.17
C       4.77       4.50       8.99
C       4.28       3.06      12.42
C       4.92       6.53       0.44
C       7.50       4.70       6.37
C       4.96       6.34       1.82
C       4.66       3.95       1.54
C       4.56       4.13       0.16
C       5.77      10.10       7.57
C       5.76       8.69       7.51
C       4.04       8.82       5.87
C       4.02      10.24       5.95
C       0.73       4.68       6.53
C       5.64      -0.87       6.86
C       5.59       0.55       7.02
C       4.03       0.71       5.24
C       4.92       4.92       3.83
C       4.01      -0.71       5.13
C       2.24       4.70       6.47
C       9.53       3.40       7.29
C       0.18       3.36       7.19
C       9.61       4.50       5.01
C       9.56       5.98       7.11
C       0.20       4.69       5.04
C       9.02       4.66       6.43
C       9.36       0.98       7.21
C       9.24      -0.08       6.13
C       0.67       5.70       2.85
C       6.68       9.18       1.12
C       3.93       7.89      10.92
C       5.95       0.75       9.46
C       9.44       2.89       9.86
C       1.86       1.06       4.18
C       7.35       8.62       9.27
C       0.15       5.91       7.34
C       8.21       7.70      10.13
C       1.69       1.99       8.45
C       1.52       1.16       9.72
C       9.58       7.83       5.31
C       1.74       5.88       9.27
C       4.86       5.06       2.38
C       4.59       4.45      10.46
C       4.69       5.46      12.69
C       4.71       5.60      11.29
C       4.26       3.22      11.04
N       4.85       1.34       6.16
N       0.39       5.80       8.78
N       4.88       8.07       6.65
N       0.60       5.87       4.28
N       5.32       8.96       0.69
N       4.96       6.88      10.73
N       6.31       1.13       8.11
N       8.99       3.56       8.66
N       3.23       1.49       4.36
N       9.11       7.26       6.55
O       4.79       3.40       8.27
O       6.63       7.89       8.27
O       0.78       3.09       8.45
O       4.81       5.67       8.44
O       6.85       3.57       6.32
O       6.87       5.84       6.49
O       4.92       3.74       4.37
O       4.93       6.01       4.54
O       2.86       3.57       6.32
O       2.87       5.84       6.49
O       8.97       2.23       6.67
