22

Cr       5.44       4.69       2.18
O       2.77       6.07       1.03
O       5.00       3.18       0.83
Cr       3.70       4.70       5.14
O       6.02       3.30       3.42
Cr       1.99       4.68       2.15
O       5.09       3.20       5.45
O       2.34       3.30       5.03
O       1.04       3.18       3.21
C       1.87       6.76       4.01
C       3.85       6.69       0.66
C       5.87       6.63       4.55
C       5.86       2.74       4.56
O       4.99       6.18       0.82
O       2.77       3.28       1.04
C       1.40       2.75       4.35
O       3.71       4.69       3.16
C       3.83       2.76       0.55
O       6.01       6.09       3.41
O       5.08       6.21       5.43
O       2.34       6.09       5.02
O       1.04       6.18       3.19
