16

O      -0.16       3.72       0.79
C       4.26       5.68      -0.68
C       4.42       5.20       0.63
C       1.94       4.97      -0.63
O       6.52       6.45      -0.79
H       5.39       5.27       1.12
C       0.99       3.82       1.39
H       0.97       4.90      -1.12
H       3.48       4.22       2.32
O       5.20       6.87      -2.53
C       2.11       4.49       0.68
C       5.38       6.35      -1.39
C       3.36       4.61       1.31
H       2.89       5.94      -2.32
O       1.16       3.30       2.53
C       3.01       5.56      -1.31
