26

C       2.84      11.03       2.86
H       2.50      10.14       0.94
O       3.01      13.35      -5.68
H       2.60      14.30      -3.43
O       3.04      11.08       5.68
O       3.52      13.27       5.69
H       3.67      14.29       0.93
H       2.62      10.13       3.43
C       3.25      12.18       5.06
C       3.42      13.37       1.46
C       3.22      12.25      -5.06
C       3.19      12.20       3.57
C       2.83      13.40      -2.86
H       3.69      10.15      -0.93
C       2.78      13.39      -1.47
C       3.17      12.24      -3.57
C       3.09      12.22      -0.74
C       2.79      11.04       1.47
C       3.42      11.06      -1.46
H       3.72      14.28       3.38
C       3.46      11.07      -2.85
H       2.49      14.29      -0.93
C       3.46      13.37       2.85
C       3.09      12.21       0.74
O       3.48      11.16      -5.69
H       3.72      10.15      -3.39
