34

H       7.08       9.28       6.68
H       2.39      12.00       6.94
H       1.06       9.91       6.28
H       2.77       9.67       5.73
H       1.88       8.36       6.60
H       1.60       8.50      10.73
H       3.00       9.60      10.53
H       2.93       8.01       9.63
H       0.91      12.07       9.12
H       2.42      11.86      10.08
H       2.20      13.32       9.06
H       8.82      10.63       7.59
H       8.34      12.18       8.43
H       9.42      12.20       6.99
C       5.18      13.37       7.43
C       4.11      11.30       8.10
C       5.20      11.95       7.53
C       6.34      11.22       7.14
C       6.25       9.84       7.10
C       5.07       9.20       7.51
C       4.04       9.93       8.09
C       2.52       9.97       7.90
C       2.64      11.51       7.91
C       5.05       7.78       7.44
C       2.04       9.45       6.54
C       2.35       8.88      10.00
C       2.01      12.22       9.12
C       8.54      11.70       7.44
O       4.04      13.97       7.43
O       6.31      13.97       7.43
O       3.91       7.17       7.43
O       6.18       7.17       7.43
O       1.66       9.51       8.94
O       7.44      11.84       6.57
