26

H       1.32       6.49       9.08
H       1.23       3.09       4.94
H      -1.18       3.07       4.97
C      -0.64       4.34       6.63
C      -0.65       5.87       8.39
C       0.78       5.90       8.36
C       0.76       4.34       6.64
C       0.81       4.10       5.16
C      -0.73       4.07       5.16
H      -1.73       6.36      11.39
H      -0.00       6.45      10.97
H      -0.97       4.93      10.66
H       2.05       7.00       4.73
C      -0.98       6.04      10.64
C       1.11       6.43       4.60
C      -1.50       4.74       3.10
H       0.47       6.61       5.48
H       0.59       6.85       3.71
H      -2.18       3.87       3.01
H      -0.52       4.52       2.61
H      -1.96       5.59       2.54
N      -1.36       5.19       7.42
N       1.47       5.19       7.42
O      -1.35       6.55       9.37
O       1.45       5.08       4.34
O      -1.33       5.13       4.44
