10

H       7.91       4.95       1.32
H       5.32       3.29       1.03
C       5.90       5.87       1.13
C       6.84       4.74       1.23
C       6.39       3.47       1.15
C       7.28       2.29       1.15
O       6.34       7.03       0.73
O       4.67       5.71       1.41
O       6.84       1.21       0.58
O       8.43       2.33       1.65
