780

H      20.09      33.42      19.42
H      27.07      33.42      19.43
H      26.50      29.81      17.24
H      20.66      29.81      17.24
H      23.55      28.70      19.92
H      23.63      31.71      15.00
H      18.31      30.62      17.90
H      28.85      30.61      17.91
H      23.48      32.16      12.62
H      23.72      26.74      21.39
H       6.60      33.34      19.27
H       8.92      33.34      19.27
H      31.61      31.28      18.57
H      15.55      31.28      18.56
H      22.64      31.63       8.75
H      23.84      24.79      18.31
H      23.73      25.68      16.10
H      23.35      26.95      14.03
H      23.25      28.52      12.25
H      20.05      56.10      19.32
H      22.38      55.83      19.50
H      24.70      55.83      19.51
H      27.03      56.11      19.32
H      26.45      14.73      17.29
H      20.61      14.73      17.29
H      23.40      12.97      15.00
H      23.99      16.26      12.40
H      24.01      17.74      14.27
H      23.40      15.72      20.05
H      24.05      18.92      16.44
H      24.06      19.68      18.69
H      18.26      13.74      17.65
H      28.80      13.76      17.65
H      23.63      17.54      21.64
H      23.62      12.63      12.59
H      22.41      33.72      19.57
H      24.74      33.72      19.57
H      20.09      44.86      39.02
H      22.41      44.83      38.69
H      24.74      44.83      38.70
H      27.07      44.85      39.03
H      26.50      22.25       4.21
H      20.65      22.26       4.21
H      23.63      25.12       3.82
H      23.28      25.73       7.99
H      23.36      23.37       8.35
H      23.55      19.36       3.70
H      23.73      20.93       8.30
H      23.86      18.61       7.85
H      18.30      22.42       3.18
H      28.85      22.41       3.19
H      23.71      17.09       4.51
H      23.48      27.38       4.73
H       4.23      56.03      19.52
H       6.56      11.23      19.33
H       8.88      11.23      19.33
H      11.21      56.02      19.52
H      10.63      52.33      21.55
H       4.79      52.33      21.55
H       7.58      54.09      23.84
H       8.17      50.79      26.44
H       8.19      49.31      24.57
H       7.58      51.33      18.79
H       8.23      48.14      22.40
H       8.24      47.38      20.15
H       2.44      53.32      21.18
H      12.98      53.30      21.19
H       7.81      49.52      17.20
H       7.80      54.42      26.25
H       4.27      33.63      19.42
H      11.25      33.64      19.41
H      10.68      37.24      21.60
H       4.83      37.24      21.60
H       7.73      38.36      18.93
H       8.02      42.27      20.53
H       7.91      41.38      22.74
H       7.81      35.34      23.85
H       7.52      40.10      24.81
H       7.43      38.54      26.60
H       2.49      36.44      20.94
H      13.03      36.44      20.93
H       7.66      34.90      26.22
H       7.91      40.31      17.45
H       4.27      44.73      38.86
H       6.60      22.22       0.15
H       8.92      22.23       0.15
H      11.25      44.74      38.85
H      10.67      44.81      34.63
H       4.83      44.80      34.64
H       7.81      41.93      35.03
H       7.46      41.33      30.85
H       7.53      43.68      30.50
H       7.73      47.70      35.14
H       7.90      46.12      30.54
H       8.04      48.45      30.99
H       2.48      44.63      35.67
H      13.02      44.64      35.65
H       7.89      49.97      34.33
H       7.66      39.68      34.11
H      31.57      12.87      17.89
H      31.33      54.21      20.94
H      31.37      35.78      20.28
H      31.61      22.65       2.29
H      31.36      44.40      36.57
H      15.75      54.19      20.96
H      15.51      12.84      17.90
H      15.79      35.78      20.28
H      15.79      44.41      36.56
H      15.54      22.65       2.28
H      22.50      16.36      10.58
H      24.39      13.95       6.88
H      22.49      23.12      19.19
H      24.38      21.18      23.15
H      24.74      27.31       8.94
H       6.70      50.69      28.26
H       8.54      53.12      31.96
H       6.68      43.94      19.66
H       8.55      45.87      15.68
H       8.91      39.74      29.91
H       6.83      35.43      30.09
H      23.73      56.00      32.41
H      30.71      55.99      32.42
H      30.14      52.38      30.23
H      24.29      52.39      30.23
H      27.19      51.27      32.91
H      27.27      54.28      27.99
H      21.95      53.19      30.89
H       0.85      53.19      30.90
H      27.12      54.73      25.61
H      27.36      49.32      34.39
H      10.23      55.91      32.26
H      12.56      55.91      32.26
H       3.61      53.85      31.56
H      19.19      53.85      31.56
H      26.28      54.20      21.74
H      27.48      47.36      31.30
H      27.37      48.25      29.09
H      26.99      49.53      27.02
H      26.89      51.09      25.24
H      23.69      33.60      32.31
H      26.01      33.33      32.50
H      28.34      33.33      32.50
H      30.67      33.61      32.31
H      30.09      37.30      30.28
H      24.25      37.30      30.28
H      27.04      35.54      27.99
H      27.63      38.83      25.39
H      27.65      40.32      27.26
H      27.03      38.30      33.04
H      27.69      41.49      29.43
H      27.70      42.25      31.68
H      21.90      36.31      30.64
H       0.80      36.33      30.64
H      27.27      40.11      34.63
H      27.26      35.20      25.58
H      26.05      56.29      32.56
H      28.38      56.29      32.56
H      23.73      44.90      12.98
H      26.05      44.87      12.65
H      28.38      44.86      12.65
H      30.71      44.89      12.99
H      30.14      44.82      17.20
H      24.29      44.83      17.20
H      27.27      47.69      16.81
H      26.92      48.30      20.98
H      26.99      45.94      21.34
H      27.19      41.93      16.69
H      27.37      43.50      21.29
H      27.50      41.18      20.84
H      21.94      44.99      16.17
H       0.85      44.98      16.18
H      27.35      39.66      17.50
H      27.12      49.95      17.73
H       7.87      33.53      32.51
H      10.19      33.80      32.32
H      12.52      33.80      32.32
H      14.85      33.52      32.51
H      14.27      29.83      34.54
H       8.43      29.83      34.54
H      11.22      31.59      36.83
H      11.81       5.76       0.39
H      11.82      26.81      37.56
H      11.22      28.83      31.78
H      11.86      25.64      35.39
H      11.88      24.88      33.14
H       6.08      30.82      34.17
H      16.62      30.80      34.18
H      11.45      27.02      30.19
H      11.45       9.39       0.21
H       7.91      56.20      32.41
H      14.89      56.21      32.40
H      14.32      59.82      34.59
H       8.47      59.81      34.59
H      11.37      60.93      31.92
H      11.66      19.77      33.52
H      11.55      63.95      35.73
H      11.45      57.92      36.84
H      11.16      62.67      37.80
H      11.07      38.58       0.55
H       6.13      59.01      33.93
H      16.67      59.01      33.92
H      11.30      34.93       0.18
H      11.55      17.81      30.44
H       7.91      44.77      12.81
H      10.23      44.80      13.14
H      12.56      44.80      13.14
H      14.89      44.78      12.80
H      14.32      44.84       8.59
H       8.47      44.84       8.60
H      11.45      41.97       8.98
H      11.10      41.36       4.81
H      11.17      43.72       4.45
H      11.37      47.73       9.10
H      11.55      46.16       4.50
H      11.68       3.41       4.95
H       6.12      44.67       9.63
H      16.67      44.68       9.61
H      11.54       4.93       8.28
H      11.30      39.71       8.06
H       3.56      35.44      30.88
H       3.33      31.71      33.93
H       3.37      58.35      33.27
H       3.61      45.22      15.28
H       3.37      44.44      10.52
H      19.39      31.69      33.95
H      19.15      35.42      30.89
H      19.43      58.35      33.27
H      19.43      44.45      10.51
H      19.18      45.22      15.27
H      26.14      38.93      23.57
H      28.03      36.52      19.87
H      26.13      45.69      32.18
H      28.02      43.76      36.14
H      28.38      49.88      21.93
H      10.34       5.65       2.22
H      12.19       8.08       5.92
H      10.32      21.44      32.65
H      12.19      23.37      28.67
H      12.55      39.78       3.86
H      10.47      35.46       4.05
C      23.58      29.79      15.85
C      23.54      28.42      15.55
C      23.58      27.70      16.73
C      23.58      28.58      17.81
C      23.58      28.05      19.12
C      23.62      26.64      19.34
C      23.72      25.79      18.21
C      23.67      26.31      16.91
C      23.43      27.95      14.23
C      23.39      28.88      13.18
C      23.52      30.27      13.42
C      23.58      30.71      14.77
C      22.42      30.82      17.82
C      22.89      31.95      18.49
C      24.26      31.95      18.50
C      24.74      30.82      17.82
C      25.11      32.90      19.08
C      26.48      32.71      18.98
C      27.04      31.58      18.31
C      26.14      30.63      17.73
C      21.02      30.64      17.73
C      20.12      31.59      18.30
C      20.68      32.71      18.98
C      22.05      32.90      19.07
C      23.58      30.00      17.33
C      28.43      31.44      18.26
C      18.73      31.44      18.25
C      23.53      31.20      12.37
C      23.63      26.11      20.64
C      31.55      32.23      18.92
C      30.32      32.91      19.01
C      16.84      32.91      19.01
C      15.61      32.23      18.92
C      23.62      30.23      10.03
C      23.08      30.70       8.81
C      23.48      23.55      21.03
C      23.57      15.95      17.96
C      23.73      16.88      16.93
C      23.72      16.22      15.72
C      23.57      14.85      15.94
C      23.51      13.97      14.83
C      23.62      14.48      13.50
C      23.83      15.87      13.32
C      23.86      16.74      14.42
C      23.89      18.25      17.20
C      23.87      18.70      18.53
C      23.64      17.80      19.61
C      23.52      16.41      19.30
C      22.37      13.72      17.87
C      22.85      12.58      18.51
C      24.22      12.57      18.52
C      24.69      13.72      17.87
C      25.06      11.59      19.05
C      26.44      11.78      18.93
C      26.99      12.92      18.29
C      26.09      13.90      17.76
C      20.97      13.89      17.76
C      20.08      12.92      18.30
C      20.63      11.77      18.93
C      22.01      11.59      19.05
C      23.53      14.56      17.41
C      28.38      13.05      18.20
C      18.69      13.03      18.20
C      23.60      18.24      20.94
C      23.58      13.61      12.40
C      23.57      21.06       4.93
C      23.57      21.50       6.26
C      23.54      22.88       6.29
C      23.57      23.37       4.98
C      23.59      24.77       4.78
C      23.53      25.67       5.88
C      23.41      25.13       7.18
C      23.43      23.74       7.40
C      23.67      20.60       7.34
C      23.73      19.22       7.07
C      23.63      18.72       5.74
C      23.57      19.67       4.68
C      22.42      22.25       3.05
C      22.89      22.26       1.73
C      24.26      22.26       1.73
C      24.73      22.25       3.05
C      25.11      22.28       0.62
C      26.48      22.29       0.83
C      27.03      22.27       2.15
C      26.14      22.25       3.26
C      21.01      22.26       3.25
C      20.12      22.28       2.14
C      20.67      22.30       0.83
C      22.05      22.28       0.61
C      23.57      22.23       4.00
C      28.42      22.30       2.30
C      18.73      22.31       2.29
C      23.64      17.35       5.47
C      23.54      27.06       5.67
C       7.75      51.11      20.87
C       7.90      50.18      21.90
C       7.90      50.84      23.12
C       7.75      52.21      22.90
C       7.69      53.08      24.01
C       7.80      52.58      25.34
C       8.01      51.19      25.51
C       8.04      50.31      24.42
C       8.07      48.81      21.64
C       8.05      48.36      20.31
C       7.82      49.26      19.23
C       7.70      50.65      19.54
C       6.55      53.34      20.97
C       7.03      54.48      20.32
C       8.40      54.48      20.32
C       8.87      53.34      20.97
C       9.24      55.46      19.79
C      10.62      55.28      19.91
C      11.17      54.13      20.55
C      10.27      53.16      21.08
C       5.15      53.17      21.08
C       4.26      54.14      20.54
C       4.82      55.29      19.91
C       6.19      55.47      19.79
C       7.71      52.50      21.43
C      12.56      54.01      20.65
C       2.87      54.03      20.64
C       7.78      48.82      17.90
C       7.76      53.45      26.44
C       7.75      37.27      23.00
C       7.72      38.63      23.29
C       7.76      39.36      22.11
C       7.76      38.47      21.03
C       7.76      39.01      19.72
C       7.80      40.42      19.50
C       7.90      41.26      20.63
C       7.85      40.75      21.94
C       7.61      39.10      24.61
C       7.57      38.17      25.66
C       7.70      36.78      25.43
C       7.76      36.34      24.07
C       6.60      36.24      21.02
C       7.07      35.11      20.35
C       8.44      35.11      20.35
C       8.92      36.24      21.02
C       9.29      34.16      19.76
C      10.66      34.35      19.86
C      11.22      35.47      20.53
C      10.32      36.42      21.11
C       5.20      36.42      21.12
C       4.30      35.47      20.54
C       4.86      34.34      19.86
C       6.23      34.15      19.77
C       7.76      37.05      21.51
C      12.61      35.61      20.59
C       2.91      35.61      20.59
C       7.71      35.85      26.47
C       7.81      40.95      18.20
C       7.74      45.99      33.91
C       7.75      45.56      32.58
C       7.71      44.17      32.55
C       7.75      43.69      33.86
C       7.76      42.28      34.07
C       7.71      41.38      32.96
C       7.58      41.93      31.66
C       7.61      43.31      31.45
C       7.84      46.45      31.51
C       7.90      47.83      31.78
C       7.81      48.33      33.10
C       7.75      47.38      34.17
C       6.59      44.80      35.80
C       7.07      44.79      37.11
C       8.44      44.80      37.11
C       8.91      44.81      35.79
C       9.28      44.78      38.23
C      10.66      44.77      38.01
C      11.21      44.78      36.70
C      10.31      44.80      35.59
C       5.19      44.79      35.60
C       4.30      44.77      36.71
C       4.85      44.76      38.02
C       6.23      44.77      38.23
C       7.75      44.82      34.84
C      12.60      44.76      36.55
C       2.91      44.75      36.56
C       7.82      49.71      33.37
C       7.72      40.00      33.17
C      31.51      12.09      18.54
C       0.98      55.42      19.75
C      31.39      55.00      20.29
C      30.28      11.67      19.08
C       1.02      34.15      19.83
C      31.43      34.82      19.92
C      31.55      22.48       1.28
C       1.01      44.84      38.20
C      31.42      44.58      37.57
C      30.32      22.22       0.65
C      15.69      54.98      20.30
C      16.80      11.65      19.10
C      15.57      12.06      18.55
C      14.46      55.39      19.76
C      15.73      34.82      19.92
C      14.50      34.15      19.83
C      15.73      44.58      37.56
C      16.83      22.22       0.64
C      15.60      22.48       1.27
C      14.50      44.84      38.19
C      22.94      15.85       9.81
C      23.52      15.80       7.48
C      23.99      14.48       7.66
C      23.48      14.56      10.00
C      22.93      22.72      20.02
C      23.50      20.75      21.26
C      23.98      21.58      22.30
C      24.26      28.21       8.89
C      23.65      28.66       7.70
C       7.12      51.20      29.03
C       7.70      51.26      31.36
C       8.16      52.58      31.19
C       7.65      52.50      28.84
C       7.11      44.34      18.82
C       7.68      46.31      17.58
C       8.15      45.48      16.54
C       7.66      43.51      17.82
C       8.43      38.85      29.95
C       7.80      36.83      28.82
C       7.26      36.35      30.03
C       7.83      38.39      31.15
C      27.21      52.36      28.84
C      27.18      50.99      28.54
C      27.22      50.27      29.72
C      27.22      51.16      30.80
C      27.22      50.62      32.11
C      27.26      49.21      32.33
C      27.36      48.36      31.20
C      27.31      48.88      29.90
C      27.07      50.52      27.22
C      27.03      51.45      26.17
C      27.16      52.84      26.41
C      27.22      53.29      27.77
C      26.06      53.39      30.81
C      26.53      54.52      31.48
C      27.90      54.52      31.49
C      28.38      53.39      30.81
C      28.75      55.47      32.07
C      30.12      55.28      31.98
C      30.68      54.16      31.30
C      29.78      53.21      30.72
C      24.66      53.21      30.72
C      23.76      54.16      31.29
C      24.32      55.28      31.97
C      25.69      55.48      32.06
C      27.22      52.57      30.32
C       0.43      54.01      31.25
C      22.37      54.02      31.24
C      27.17      53.77      25.36
C      27.27      48.68      33.63
C       3.55      54.80      31.91
C       2.32      55.48      32.00
C      20.47      55.48      32.00
C      19.25      54.80      31.91
C      27.26      52.80      23.02
C      26.72      53.28      21.80
C      27.12      46.12      34.02
C      27.21      38.52      30.95
C      27.37      39.45      29.92
C      27.36      38.79      28.71
C      27.21      37.42      28.93
C      27.15      36.55      27.82
C      27.26      37.05      26.49
C      27.47      38.44      26.31
C      27.50      39.32      27.41
C      27.53      40.82      30.19
C      27.51      41.27      31.52
C      27.28      40.38      32.60
C      27.15      38.98      32.29
C      26.01      36.30      30.86
C      26.49      35.15      31.50
C      27.86      35.15      31.51
C      28.33      36.29      30.86
C      28.70      34.17      32.04
C      30.08      34.35      31.92
C      30.63      35.50      31.28
C      29.73      36.47      30.75
C      24.61      36.47      30.75
C      23.72      35.49      31.29
C      24.27      34.34      31.92
C      25.65      34.16      32.04
C      27.17      37.13      30.40
C       0.38      35.62      31.19
C      22.33      35.60      31.19
C      27.24      40.81      33.93
C      27.21      36.18      25.39
C      27.21      43.64      17.93
C      27.21      44.07      19.25
C      27.18      45.46      19.28
C      27.21      45.94      17.97
C      27.23      47.34      17.77
C      27.17      48.25      18.87
C      27.05      47.70      20.17
C      27.07      46.31      20.39
C      27.31      43.17      20.33
C      27.36      41.80      20.06
C      27.27      41.29      18.73
C      27.21      42.24      17.67
C      26.06      44.82      16.04
C      26.53      44.83      14.72
C      27.90      44.83      14.72
C      28.37      44.82      16.04
C      28.74      44.85      13.61
C      30.12      44.86      13.82
C      30.67      44.85      15.14
C      29.78      44.83      16.25
C      24.65      44.83      16.24
C      23.76      44.85      15.13
C      24.31      44.87      13.82
C      25.69      44.85      13.60
C      27.21      44.81      16.99
C       0.42      44.87      15.29
C      22.37      44.88      15.28
C      27.28      39.92      18.46
C      27.18      49.63      18.66
C      11.39      28.61      33.86
C      11.54      27.68      34.89
C      11.54      28.34      36.11
C      11.39      29.71      35.89
C      11.33      30.58      37.00
C      11.44      30.08      38.33
C      11.65      28.69      38.50
C      11.68      27.81      37.41
C      11.71      26.31      34.63
C      11.69      25.86      33.30
C      11.46      26.76      32.22
C      11.33      28.15      32.53
C      10.19      30.84      33.96
C      10.67      31.98      33.31
C      12.04      31.98      33.31
C      12.51      30.84      33.96
C      12.88      32.96      32.78
C      14.26      32.78      32.90
C      14.81      31.63      33.54
C      13.91      30.66      34.07
C       8.79      30.67      34.07
C       7.90      31.64      33.53
C       8.45      32.79      32.90
C       9.83      32.97      32.78
C      11.35      30.00      34.42
C      16.20      31.51      33.64
C       6.51      31.53      33.63
C      11.42      26.32      30.89
C      11.40       8.41       0.40
C      11.39      59.84      35.99
C      11.36      61.21      36.28
C      11.40      61.93      35.10
C      11.39      61.04      34.02
C      11.40      61.58      32.71
C      11.44      62.99      32.49
C      11.54      63.84      33.62
C      11.49      63.32      34.93
C      11.25      61.68      37.60
C      11.21      60.75      38.65
C      11.34      59.36      38.42
C      11.40      58.91      37.06
C      10.24      58.81      34.01
C      10.71      57.68      33.34
C      12.08      57.68      33.34
C      12.56      58.81      34.01
C      12.93      56.73      32.75
C      14.30      56.92      32.85
C      14.86      58.04      33.52
C      13.96      58.99      34.10
C       8.84      58.99      34.11
C       7.94      58.04      33.53
C       8.50      56.92      32.85
C       9.87      56.73      32.76
C      11.40      59.63      34.50
C      16.25      58.19      33.58
C       6.55      58.18      33.58
C      11.35      35.89       0.43
C      11.45      18.45      31.20
C      11.39      46.03       7.87
C      11.39      45.59       6.54
C      11.35      44.21       6.51
C      11.39      43.72       7.82
C      11.41      42.32       8.02
C      11.35      41.42       6.92
C      11.22      41.96       5.62
C      11.25      43.35       5.40
C      11.48      46.49       5.46
C      11.54      47.87       5.73
C      11.45      48.37       7.06
C      11.39      47.42       8.12
C      10.24      44.84       9.76
C      10.71      44.83      11.07
C      12.08      44.83      11.07
C      12.55      44.84       9.75
C      12.93      44.81      12.18
C      14.30      44.80      11.97
C      14.85      44.82      10.65
C      13.96      44.84       9.54
C       8.83      44.83       9.55
C       7.94      44.81      10.66
C       8.49      44.80      11.98
C       9.87      44.81      12.19
C      11.39      44.86       8.80
C      16.24      44.80      10.50
C       6.55      44.79      10.51
C      11.46       4.67       7.33
C      11.36      40.03       7.13
C       3.51      34.66      31.53
C       4.62      32.92      32.74
C       3.39      32.50      33.28
C       2.28      34.24      32.07
C       4.65      56.72      32.82
C       3.43      57.40      32.91
C       3.55      45.05      14.27
C       4.65      44.87      12.16
C       3.43      44.61      11.53
C       2.32      44.79      13.64
C      19.33      32.48      33.29
C      20.44      34.22      32.09
C      19.21      34.63      31.54
C      18.10      32.89      32.75
C      19.37      57.40      32.91
C      18.14      56.72      32.82
C      19.37      44.62      11.52
C      20.47      44.80      13.63
C      19.24      45.05      14.26
C      18.14      44.88      12.15
C      26.57      38.42      22.80
C      27.16      38.37      20.47
C      27.63      37.05      20.65
C      27.12      37.13      22.99
C      26.57      45.30      33.01
C      27.14      43.32      34.25
C      27.62      44.15      35.29
C      27.90      50.78      21.88
C      27.29      51.24      20.69
C      10.76       6.17       2.99
C      11.34       6.23       5.32
C      11.80       7.55       5.14
C      11.29       7.46       2.80
C      10.75      21.84      31.81
C      11.32      23.81      30.57
C      11.79      22.98      29.53
C      11.30      21.01      30.81
C      12.08      38.88       3.91
C      11.44      36.86       2.77
C      10.90      36.39       3.99
C      11.47      38.43       5.10
N       1.03      32.88      19.33
N      29.16      32.39      18.72
N      14.49      32.88      19.33
N      18.00      32.39      18.72
N      23.97      22.93      22.13
N      23.57      24.87      20.99
N      23.56      31.02      11.09
N       0.99      11.41      18.90
N      30.27      55.67      19.93
N      29.12      12.18      18.79
N       2.14      54.90      20.05
N      30.31      34.17      19.51
N       2.18      34.66      20.12
N       1.03      22.50       0.51
N      30.31      44.55      38.34
N      29.16      22.22       1.25
N       2.18      44.83      37.61
N      16.81      55.65      19.94
N      14.45      11.38      18.91
N      13.30      54.88      20.06
N      17.96      12.16      18.80
N      16.85      34.17      19.51
N      13.34      34.67      20.12
N      16.84      44.56      38.33
N      14.49      22.50       0.50
N      13.33      44.83      37.60
N      18.00      22.23       1.23
N      22.98      16.41       8.57
N      23.96      13.92       8.90
N      23.53      13.89      11.15
N      23.60      16.33       6.27
N      22.96      21.37      20.18
N      23.56      19.43      21.43
N      24.22      29.01      10.00
N      23.11      29.91       7.71
N      23.58      28.00       6.55
N       7.17      50.64      30.27
N       8.13      53.14      29.95
N       7.71      53.16      27.69
N       7.78      50.72      32.58
N       7.14      45.69      18.67
N       8.14      44.13      16.71
N       7.75      42.19      17.86
N       7.74      47.63      17.41
N       8.39      38.05      28.84
N       7.29      37.15      31.13
N       7.76      39.05      32.30
N       7.74      36.03      27.75
N       4.67      55.46      32.32
N       1.16      54.96      31.71
N      18.13      55.46      32.32
N      21.64      54.96      31.71
N      27.61      45.50      35.12
N      27.21      47.44      33.98
N      27.20      53.60      24.08
N       4.63      33.98      31.89
N       2.27      33.17      32.92
N       1.11      34.75      31.78
N       5.78      32.40      33.04
N       2.31      56.74      32.50
N       5.82      57.24      33.11
N       4.67      45.07      13.50
N       2.31      44.59      12.30
N       1.16      44.80      14.24
N       5.82      44.87      11.57
N      20.45      33.15      32.93
N      18.09      33.96      31.90
N      16.94      32.38      33.05
N      21.60      34.73      31.79
N      20.49      56.74      32.50
N      16.98      57.24      33.11
N      20.49      44.60      12.29
N      18.13      45.07      13.49
N      16.98      44.87      11.55
N      21.64      44.80      14.22
N      26.62      38.98      21.56
N      27.60      36.49      21.89
N      27.17      36.46      24.14
N      27.24      38.91      19.26
N      26.60      43.94      33.17
N      27.20      42.00      34.42
N      27.86      51.58      22.99
N      26.75      52.48      20.70
N      27.22      50.58      19.54
N      10.81       5.61       4.23
N      11.77       8.10       3.90
N      11.35       8.13       1.65
N      11.42       5.69       6.53
N      10.78      23.19      31.66
N      11.78      21.63      29.70
N      11.39      19.69      30.85
N      11.38      25.13      30.40
N      12.04      38.09       2.80
N      10.93      37.18       5.09
N      11.41      39.09       6.25
N      11.38      36.07       1.71
