57

H       7.37       8.74      10.01
H       5.60       7.43      11.10
H       7.38       3.85       9.41
H       9.09       5.30       8.36
H       4.97       5.70      12.56
H       3.78       6.01      11.25
H       7.37      -0.55      14.49
H       5.60       0.78      13.42
H       7.40       4.34      15.13
H       9.10       2.87      16.17
H       4.95       2.50      11.97
H       3.77       2.21      13.28
H      -0.33       6.34      16.91
H       1.44       5.25      15.60
H      -0.35       6.95      12.02
H      -2.05       8.00      13.48
H       2.10       3.81      13.88
H       3.28       5.13      14.17
H      -0.29       1.85       7.62
H       1.48       2.93       8.94
H      -0.32       1.23      12.51
H      -2.02       0.19      11.04
H       2.10       4.39      10.66
H       3.30       3.09      10.37
C       7.33       7.66       9.89
C       6.34       6.91      10.49
C       6.31       5.52      10.31
C       7.34       4.93       9.54
C       8.30       5.73       8.96
C       4.41       5.25      11.73
C       7.34       0.53      14.63
C       6.34       1.28      14.03
C       6.31       2.67      14.22
C       7.35       3.26      14.99
C       8.30       2.45      15.56
C       4.40       2.96      12.81
C      -0.30       6.47      15.84
C       0.70       5.86      15.08
C       0.73       6.05      13.69
C      -0.30       6.82      13.10
C      -1.26       7.39      13.91
C       2.65       4.64      13.41
C      -0.26       1.72       8.69
C       0.73       2.33       9.45
C       0.76       2.14      10.84
C      -0.27       1.37      11.43
C      -1.23       0.79      10.62
C       2.66       3.57      11.13
C       3.53       4.11      12.27
N       8.32       7.11       9.09
N       8.32       1.07      15.43
N      -1.28       7.27      15.28
N      -1.24       0.92       9.24
O       5.33       4.68      10.79
O       5.34       3.52      13.75
O       1.71       5.58      12.85
O       1.73       2.62      11.68
