33

C       9.15       5.04       3.68
C       8.72       0.13       8.86
N       9.08       3.06       4.56
H      10.45       3.59       3.08
C       9.88      -1.68       8.39
C      11.68      -2.36       3.61
C      11.04      -1.01       2.01
H       9.39       5.77       3.16
C      10.13      -0.86       5.58
H       8.84       1.85       6.85
C      10.34      -0.38       4.31
H      10.14       1.23       3.10
C       9.47      -1.71       9.67
H      10.37      -1.73       5.81
C      12.18      -2.78       2.43
H       8.29       0.95       8.77
C       8.15       3.84       5.12
H      10.63      -0.31       1.57
H      10.39      -2.32       7.94
H      11.79      -2.77       4.44
N      11.77      -1.94       1.43
H       7.57       3.56       5.79
N       9.38      -0.50       7.87
C       9.41       1.71       4.92
N      10.97      -1.23       3.36
C       9.54      -0.02       6.53
C       9.20       1.28       6.21
C       9.74       3.85       3.63
N       8.14       5.05       4.60
H       9.66      -2.40      10.27
C       9.99       0.91       3.97
H      12.72      -3.53       2.31
N       8.75      -0.57       9.97
