33

C       9.47       8.35       8.22
C       8.92       8.31       6.98
C      10.09       5.98      12.71
C      10.23       7.30      12.33
H       7.73       5.82       8.17
C      10.88       8.06      14.60
H       7.77       3.09      11.23
C       8.19       6.61       7.98
H      10.60       7.30      15.06
C      11.70       9.97      14.16
H      12.10      10.81      14.27
C       8.52       2.84      11.73
H       8.85       4.89       9.90
C       9.20       5.50      10.51
C      10.41       2.97      12.83
N      11.44       9.09      15.18
H       9.95       8.62      10.83
C       9.85       7.73      11.08
H      11.35       9.85      12.16
C       9.33       6.80      10.19
N      10.75       8.23      13.26
N       8.77       1.62      12.14
H       9.07       8.94       6.31
N       8.11       7.22       6.84
N       9.00       7.24       8.86
C      11.28       9.45      12.99
H      11.18       3.29      13.24
H      10.42       0.97      13.21
H      10.04       8.99       8.56
C       9.98       1.69      12.82
H      10.33       5.70      13.56
C       9.58       5.08      11.78
N       9.48       3.69      12.12
