33

H      15.24      -1.06      23.71
C      13.43      -1.94      32.00
C      14.23      -4.02      30.10
C      14.85      -1.66      25.62
C      14.98      -3.20      27.59
H      14.27      -1.01      25.96
C      15.40      -1.69      24.38
H      12.21       0.80      31.67
C      15.12      -4.51      27.91
C      14.73      -4.92      29.18
H      12.97      -0.16      29.56
H      14.37      -1.39      28.23
C      14.46      -2.28      28.48
C      13.90      -7.04      30.23
H      13.13      -6.72      30.64
H      15.47      -5.11      27.30
H      16.58      -4.19      25.57
C      16.13      -3.40      25.38
N      15.55      -8.39      29.54
N      14.83      -6.31      29.52
C      14.08      -2.70      29.73
C      14.34      -8.31      30.22
H      13.90      -9.03      30.61
H      13.99      -4.30      30.96
N      13.57      -1.78      30.66
C      15.80      -7.16      29.13
C      13.03      -0.55      30.39
N      12.87      -0.91      32.58
H      13.71      -2.70      32.46
N      15.31      -2.77      26.26
N      16.21      -2.78      24.24
H      16.54      -6.92      28.63
C      12.61      -0.03      31.56
