22

C      12.07       4.27       6.92
H      12.75       1.19       7.30
O      13.95       6.63       4.82
H      11.99       5.09       5.05
H      11.35       5.32       8.42
O      14.33       6.00       6.89
C      11.97       2.19       8.79
C      12.50       3.05       6.65
O      13.88       1.94      10.89
C      12.21       5.41       5.94
O      13.34      -0.14      11.28
H      12.85       2.88       5.81
C      11.57       3.45       9.08
H      11.56       6.10       6.17
C      11.95       1.08       9.78
C      13.13       0.97      10.71
C      13.58       6.05       5.89
C      11.63       4.47       8.17
H      11.25       3.63       9.94
H      11.15       1.18      10.33
H      11.86       0.24       9.30
C      12.44       2.03       7.56
