22

C       3.84       6.12       7.62
H       3.14       3.58       7.46
H       4.64       6.01      10.10
C       3.47       3.76       8.32
O       5.84       0.57      12.58
O       5.24       7.34       6.12
C       4.34       5.17       9.84
H       3.76       6.96       8.10
H       3.25       1.88       8.97
O       5.77       5.26       6.51
O       6.23       1.20      10.51
H       3.88       2.11      12.35
C       3.52       2.73       9.23
C       5.48       1.15      11.51
H       3.05       6.03       7.07
H       4.74       4.32      11.59
C       3.86       5.01       8.61
C       4.39       4.15      10.75
C       5.03       6.24       6.69
H       3.46       1.11      11.23
C       3.97       2.93      10.48
C       4.11       1.79      11.46
