22

C       6.59       0.40       2.56
C       6.27      -0.00       3.99
O       4.87       0.16       0.92
H       6.49      -1.39       8.46
H       6.98      -0.36       2.10
H       5.34       1.67       4.60
H       5.26      -0.44       8.58
H       7.26       1.10       2.58
O       3.99      -2.82       7.47
C       5.63       0.84       4.88
C       5.62      -1.20       8.09
C       6.64      -1.24       4.45
C       5.80      -0.78       6.65
C       5.43       0.46       6.20
C       6.43      -1.60       5.76
O       5.02       2.08       1.91
O       4.76      -2.81       9.54
H       7.04      -1.84       3.87
H       5.03       1.06       6.80
H       6.72      -2.44       6.06
C       5.43       0.89       1.76
C       4.74      -2.38       8.36
