22

H       5.85       8.52       9.81
C       7.31       9.22      12.67
O       5.20       6.03      16.51
H       7.17       9.35       9.95
H       5.68       6.11      13.56
O       6.08       7.91      17.30
C       7.53       8.69      13.92
C       5.90       7.47      12.12
C       5.49      10.46      10.36
H       8.02       7.24      15.98
C       6.97       7.47      14.25
O       6.01      11.55       9.98
C       6.30       9.18      10.35
H       7.45       5.89      15.43
O       4.30      10.46      10.74
H       5.31       7.06      11.54
H       7.71      10.03      12.45
C       6.08       6.92      16.54
H       8.05       9.14      14.53
C       6.12       6.90      13.35
C       6.51       8.61      11.75
C       7.24       6.82      15.58
