22

H      12.45       7.44      26.70
C      10.73      13.25      23.29
H      13.07      10.83      27.34
O      10.97       7.06      28.68
H      12.75      13.30      23.57
C      12.24      11.47      24.32
C      12.74      10.65      26.48
H      13.16       8.38      27.73
C      11.18       8.17      28.11
O       9.98      13.20      24.29
H      12.33      12.29      22.45
H      11.57       8.39      24.70
O      10.44       9.14      28.29
H      11.47      10.08      23.21
O      10.37      13.83      22.22
C      12.10      12.61      23.34
C      12.37       8.28      27.18
C      12.69      11.67      25.57
C      11.82      10.25      24.05
C      11.87       9.24      24.96
H      12.96      12.52      25.82
C      12.35       9.39      26.19
