22

C       8.77      14.36      16.50
H       7.24      12.26      19.41
H      10.39      15.33      14.73
H       8.55      10.76      16.46
C       7.51      11.61      18.75
H      10.69      13.99      13.97
H       9.57      11.91      14.74
O       6.09       9.80      19.31
O       8.74      16.12      13.13
C       8.61      11.69      16.49
O       5.58      10.90      17.50
O       8.56      14.01      12.53
C       6.34      10.71      18.50
H       8.79      15.29      16.51
C       9.01      14.94      13.26
C       9.30      13.74      15.46
C       8.19      13.71      17.55
C       9.98      14.53      14.36
H       8.22      11.07      19.14
C       9.21      12.38      15.46
H       7.86      14.20      18.27
C       8.09      12.36      17.57
