33

C       7.01      13.12      28.59
H       7.37      12.55      27.95
C       7.06       9.36      31.12
C       6.47      10.56      31.17
C       6.08      15.27      29.22
C       5.87      14.78      30.49
C       4.03      17.19      32.37
C       6.80      12.70      29.88
H       5.84      16.14      28.99
H       7.92      13.45      26.03
H       8.64      10.84      29.01
C       6.22      13.50      30.83
H       5.58      14.71      33.23
C       4.53      16.76      31.19
N       5.24      15.63      31.44
H       6.55      16.80      24.53
H       4.42      17.17      30.36
N       8.07       9.35      30.20
C       8.06      10.56      29.68
C       6.67      14.42      28.27
N       4.44      16.34      33.37
H       5.76      10.81      31.72
H       6.07      13.18      31.70
N       7.13      11.35      30.24
C       6.74      16.11      25.13
H       3.49      17.93      32.49
H       6.82       8.64      31.64
C       6.33      16.08      26.41
N       6.83      14.90      26.93
C       7.49      14.28      25.94
C       5.17      15.42      32.79
H       5.82      16.72      26.86
N       7.46      14.97      24.82
