22

C      14.41      15.23       7.05
C      15.41      15.19       4.73
O      13.31      18.37       0.89
C      15.63      15.72       3.48
H      15.56      18.52       1.97
H      13.42      17.35       5.86
C      14.61      15.80       5.65
C      15.07      16.94       3.15
O      14.18      16.49       0.10
H      13.96      15.89       7.59
H      15.28      15.06       7.45
H      16.16      15.27       2.87
H      16.13      17.17       1.42
O      12.40      13.95       6.66
O      14.11      12.86       7.42
H      13.78      18.29       3.83
C      14.22      17.50       4.05
C      14.19      17.48       0.86
C      14.01      16.94       5.28
H      15.82      14.38       4.95
C      15.35      17.59       1.82
C      13.60      13.94       7.04
