22

H       7.03       5.80      32.95
O       7.99       6.51      30.76
H       7.49      -0.62      34.71
O       8.97       4.57      31.01
H       8.41       2.59      35.77
C       7.72       1.38      34.35
O      10.17      -0.93      35.66
O      10.08      -0.00      33.69
C       7.79       3.75      34.25
H       8.05       4.55      34.65
H       6.86       0.57      32.74
C       7.03       5.08      32.30
H       6.45       2.56      31.64
H       7.93       0.17      35.99
C       7.11       1.37      33.13
C       8.08       0.08      35.04
C       8.07       5.38      31.26
C       6.86       2.58      32.48
C       9.52      -0.31      34.79
C       8.03       2.57      34.92
H       6.16       5.08      31.87
C       7.19       3.78      33.05
