33

N       0.90      -0.03       8.54
N       0.66       5.59       5.26
C       1.23       0.40       7.21
H       2.50      -0.10       2.34
C       1.87       5.51       4.58
H       4.00      -3.60       3.13
H       1.94      -1.79       8.84
C       1.09       1.71       6.89
H      -0.33       4.11       6.17
C       1.75      -0.52       6.32
C       2.31       4.24       4.57
C       0.81      -1.11      10.42
C       0.08       0.60       9.42
H       3.08       3.91       4.16
H       0.97      -1.74      11.09
H       1.84      -1.42       6.57
C       2.78      -0.86       2.80
H       0.74       2.31       7.50
C       3.18      -2.25       4.41
C       1.36      -1.15       9.18
N       1.38       3.51       5.28
H       3.24      -2.65       5.24
C       3.60      -2.77       3.24
H       2.31       6.23       4.19
N       2.64      -1.02       4.14
N       3.34      -1.89       2.22
H       2.22       1.50       3.84
C       1.98       1.22       4.69
N       0.00      -0.02      10.56
C       1.48       2.12       5.62
C       0.41       4.36       5.67
C       2.13      -0.10       5.07
H      -0.37       1.38       9.23
