33

H       6.05      11.71      12.74
C       3.45      12.87      19.04
C       3.88      16.34      17.64
C       3.83      14.96      17.67
C       4.24      14.12      13.03
C       4.16      14.22      16.55
C       2.70      14.73      19.89
C       4.29      16.99      16.49
H       2.50      15.63      20.01
H       5.26      21.11      15.27
C       5.68      13.02      14.24
H       3.63      16.83      18.39
C       5.00      19.14      15.43
C       4.55      14.89      15.40
H       3.60      14.75      12.78
N       4.85      14.09      14.25
H       3.55      19.11      18.13
C       4.00      19.33      17.34
H       5.38      18.80      14.65
H       6.22      12.74      14.94
N       2.33      13.78      20.72
H       2.70      11.79      20.56
C       5.57      12.46      13.03
N       4.65      13.13      12.26
H       3.87      12.25      18.49
H       4.13      13.29      16.57
C       4.62      16.26      15.34
N       4.30      20.56      16.98
C       2.81      12.63      20.19
H       4.89      16.69      14.56
C       4.93      20.40      15.78
N       4.42      18.41      16.43
N       3.39      14.25      18.84
