20

C       8.85      12.08      13.27
C       9.62      11.08      14.06
C      10.50      10.19      13.24
C       7.43      13.91      11.89
C       7.25      12.55      11.68
C       9.00      13.45      13.48
C      11.89      10.21      13.38
C      10.72       8.63      11.57
C      12.10       8.71      11.66
H      10.21      11.58      14.84
H       6.89      14.64      11.30
H       6.54      12.19      10.94
H       9.73      13.81      14.21
H      12.36      10.84      14.13
H      10.25       7.95      10.86
H      12.76       8.19      10.97
N       9.90       9.37      12.34
N       7.95      11.61      12.35
N      12.71       9.50      12.59
N       8.31      14.39      12.80
