21

C      15.04       6.08      14.92
C      13.13       9.31      17.66
C      14.32       7.36      17.70
C      13.91       9.76      16.61
C      14.38       4.92      15.36
C      15.97       6.82      15.85
C      13.06       4.94      13.49
C      15.08       7.79      16.60
C      13.73       6.06      13.03
H      12.31       9.91      18.06
H      14.48       6.38      18.13
H      13.74      10.75      16.16
H      14.66       4.45      16.30
H      16.72       7.38      15.28
H      16.46       6.12      16.54
H      12.25       4.50      12.92
H      13.48       6.51      12.08
N      14.90       9.02      16.06
N      13.34       8.11      18.25
N      14.73       6.66      13.74
N      13.38       4.33      14.66
