21

N      16.16      12.87       5.66
N      17.49      15.18       4.68
N      16.51      17.13       9.31
C      17.78      14.65       5.90
C      15.83      13.46       4.47
C      17.95      16.50       7.47
C      16.90      18.55       7.42
C      16.29      18.29       8.63
C      18.74      15.42       6.77
C      16.49      14.57       4.00
C      17.12      13.51       6.37
H      15.04      12.97       3.90
C      17.34      16.25       8.70
H      16.70      19.48       6.89
H      15.60      19.00       9.08
H      19.21      14.75       7.50
H      19.51      15.89       6.14
H      16.25      14.99       3.02
H      17.37      13.07       7.34
H      17.51      15.30       9.22
N      17.75      17.68       6.81
