21

N      19.98       9.83      11.81
C      17.96       8.53      11.54
C      15.12      10.98       8.80
C      16.82       9.46       8.76
C      14.54      10.30       9.85
C      19.22       8.96      11.12
C      17.06       7.75      10.61
C      19.42      10.28      12.97
C      16.27       8.80       9.86
C      18.19       9.84      13.42
H      14.67      11.89       8.40
H      17.76       9.12       8.32
H      13.60      10.64      10.30
H      19.64       8.58      10.18
H      16.38       7.11      11.19
H      17.66       7.14       9.93
H      20.01      11.00      13.54
H      17.78      10.19      14.36
N      15.10       9.19      10.41
N      16.26      10.56       8.20
N      17.43       8.96      12.71
