14

C       8.43       9.59      14.35
Cu       5.63       9.44      14.46
O       6.66      11.32      16.64
Cu       6.57      11.69      14.71
O       5.79       9.22      16.40
C       5.90      10.95      12.08
O       7.46       8.77      14.26
O       8.34      10.86      14.49
C       3.77      11.53      14.82
O       6.40      11.91      12.77
O       5.54       9.81      12.53
C       6.30      10.18      17.09
O       4.74      12.36      14.91
O       3.86      10.27      14.68
