14

Cu      21.07      16.10       6.21
O      23.79      16.44       7.60
O      22.91      15.77       5.60
C      19.22      16.90       8.19
Cu      22.02      16.83       8.37
O      21.85      14.97       8.98
C      21.35      14.10       8.19
O      21.24      17.96       5.60
O      22.11      18.63       7.60
O      20.18      17.15       8.99
O      19.31      16.49       6.98
C      23.88      16.03       6.39
C      21.74      18.83       6.39
O      20.98      14.29       6.98
