13

Cu      -1.54       7.91       0.00
N      -2.20       6.90       1.73
C      -4.24       8.66      -0.83
C       1.16       7.16       0.83
N       0.22       8.15       0.83
N       0.67       9.14       1.63
N      -0.88       8.91      -1.73
C      -1.23       8.51      -2.98
C       0.04       9.90      -1.61
C      -1.85       7.31       2.98
C      -3.12       5.92       1.61
N      -3.30       7.67      -0.83
N      -3.74       6.68      -1.63
