50

Dy       6.63       6.04       2.94
Dy       4.22       5.34      -2.94
Zn       4.31       2.03       2.48
Zn       6.53       9.35      -2.48
C       3.59       3.30      -4.81
C       4.88       2.82       5.34
C       2.12       4.07       1.82
C       4.11       0.63       5.35
C       1.40       2.43       3.27
C       7.33       1.34       1.93
C       9.17       4.81       2.72
C       4.31      -0.79       1.78
C       6.63       8.71       0.68
C       5.33       3.97       4.47
C       5.77      -0.38       1.62
C       7.25       8.08       4.81
C       5.97       8.55      -5.34
C       8.73       7.30      -1.82
C       6.73      10.75      -5.35
C       9.44       8.95      -3.27
C       3.51      10.04      -1.93
C       1.67       6.56      -2.72
C       6.54      12.17      -1.78
C       4.21       2.66      -0.68
C       5.51       7.40      -4.47
C       5.08      11.75      -1.62
N       4.45       1.74       4.66
N       2.40       2.95       2.52
N       6.06       0.88       2.02
N       6.40       9.64      -4.66
N       8.45       8.43      -2.52
N       4.79      10.49      -2.02
O       4.79       3.39      -4.43
O       2.71       4.13      -4.46
O       8.27       4.30       3.47
O       6.83       7.84       1.56
O       3.49       0.12       2.16
O       6.28       8.48      -0.51
O       8.93       5.85       2.03
O       5.29       3.82       3.20
O       5.79       5.02       5.00
O       6.06       7.99       4.43
O       8.14       7.24       4.46
O       2.58       7.07      -3.47
O       4.02       3.54      -1.56
O       7.35      11.26      -2.16
O       4.57       2.89       0.51
O       1.91       5.53      -2.03
O       5.56       7.55      -3.20
O       5.06       6.36      -5.00
