32

Cd       8.31       6.58      10.09
Cd      11.55       8.30      10.25
Cd       3.03       4.81       9.57
C       7.43       3.57       9.47
C       8.16       4.51       7.49
C      10.34      10.22       7.93
C      11.40      11.50       9.52
C       7.39       8.73       7.89
C       6.33       9.13       9.92
C       3.93       1.70       9.31
C       1.98       2.14       8.13
S      13.46       9.60      12.53
S       5.18       5.73      11.55
S      11.10       6.61       7.70
S      10.91       4.96      11.71
S       9.12       8.82      12.69
N       4.40       5.10       7.65
N       7.81       4.66       8.78
N      11.04      10.28       9.08
N       7.18       8.39       9.18
N       2.96       2.57       8.96
O      13.26       9.49      11.04
O       4.54       6.54      10.46
O       6.67       5.86      11.52
O       9.90       7.16       8.49
O      12.30       7.40       8.21
O      11.30       5.15       8.01
O       9.45       5.09      11.44
O      11.72       6.09      11.04
O       9.53       8.27      11.31
C       4.30       4.31       6.56
C       4.93       6.33       7.48
