172

Mn       2.50       3.31       4.89
Mn       2.21      11.96       4.67
Mn       2.49       5.36      14.24
Mn       2.20      14.00      14.46
Mn       6.91      14.02      14.23
Mn       7.20       5.35      14.46
Mn       6.91      11.97       4.89
Mn       7.20       3.30       4.67
Mn       3.62      13.00       9.57
Mn       1.08       4.33       0.00
Mn       5.78       4.33       9.56
Mn       8.33      13.00      19.11
H       8.84      16.37       4.27
H       2.86      16.24       7.84
H       5.27       7.71       5.29
H       1.84       7.57       1.72
H       8.84       9.61      14.85
H       2.86       9.74      11.28
H       5.27       0.95      13.82
H       1.84       1.08      17.40
H       0.56       0.95      14.85
H       6.54       1.08      11.27
H       4.14       9.61      13.82
H       7.57       9.75      17.40
H       0.57       7.71       4.27
H       6.54       7.58       7.84
H       4.14      16.37       5.29
H       7.57      16.24       1.72
C       2.44       1.39       7.12
C       1.75       0.18       6.53
C       0.77       0.20       5.51
C       0.20      16.33       5.04
C       0.61      15.10       5.53
C       1.60      15.06       6.54
C       2.13      16.26       7.04
C       0.25       1.47       4.90
C       9.37      13.86       4.96
C       2.14      13.81       7.09
C       2.26      10.04       2.43
C       2.95       8.83       3.04
C       3.93       8.86       4.05
C       4.51       7.67       4.52
C       4.11       6.43       4.02
C       3.11       6.40       3.02
C       2.58       7.59       2.51
C       4.45      10.13       4.66
C       4.75       5.19       4.59
C       2.57       5.14       2.47
C       2.45       7.27      12.00
C       1.76       8.48      12.60
C       0.77       8.46      13.61
C       0.19       9.65      14.08
C       0.60      10.89      13.58
C       1.59      10.92      12.57
C       2.13       9.72      12.07
C       0.26       7.19      14.22
C       9.36      12.13      14.15
C       2.12      12.17      12.02
C       2.28      15.93      16.69
C       2.96      17.15      16.09
C       3.94      17.12      15.07
C       4.51       0.99      14.59
C       4.10       2.23      15.09
C       3.10       2.26      16.09
C       2.58       1.07      16.60
C       4.45      15.85      14.46
C       4.73       3.47      14.52
C       2.56       3.52      16.64
C       6.97      15.93      11.99
C       7.65      17.14      12.59
C       8.63      17.12      13.61
C       9.20       0.99      14.08
C       8.80       2.23      13.58
C       7.81       2.26      12.57
C       7.28       1.06      12.07
C       9.16      15.85      14.22
C       0.04       3.46      14.15
C       7.28       3.52      12.02
C       7.13       7.27      16.69
C       6.46       8.49      16.09
C       5.48       8.46      15.07
C       4.90       9.65      14.60
C       5.31      10.89      15.10
C       6.30      10.92      16.10
C       6.83       9.73      16.61
C       4.96       7.19      14.46
C       4.67      12.12      14.52
C       6.84      12.18      16.65
C       6.98      10.05       7.13
C       7.65       8.83       6.53
C       8.63       8.86       5.51
C       9.21       7.67       5.04
C       8.80       6.43       5.54
C       7.81       6.40       6.54
C       7.28       7.60       7.04
C       9.16      10.13       4.90
C       0.04       5.19       4.97
C       7.27       5.14       7.09
C       7.14       1.38       2.43
C       6.46       0.17       3.04
C       5.47       0.20       4.05
C       4.90      16.33       4.52
C       5.30      15.09       4.02
C       6.29      15.06       3.01
C       6.83      16.26       2.51
C       4.95       1.47       4.66
C       4.66      13.85       4.59
C       6.83      13.80       2.46
O       3.16       1.26       8.12
O       2.21       2.58       6.59
O       0.99       2.11       4.10
O       8.45       1.75       5.20
O       0.64      13.22       4.09
O       8.20      13.59       5.37
O       2.01      12.67       6.56
O       2.79      13.96       8.21
O       1.55       9.90       1.44
O       2.49      11.24       2.96
O       3.71      10.77       5.46
O       5.65      10.41       4.36
O       4.08       4.57       5.48
O       5.91       4.90       4.18
O       2.70       4.00       3.00
O       1.92       5.30       1.35
O       3.15       7.39      11.00
O       2.23       6.08      12.54
O       1.00       6.54      15.01
O       8.46       6.91      13.93
O       0.61      12.74      15.05
O       8.19      12.42      13.74
O       1.97      13.31      12.55
O       2.79      12.02      10.91
O       1.54      16.09      17.68
O       2.54      14.75      16.19
O       3.71      15.21      13.65
O       5.66      15.56      14.76
O       4.06       4.11      13.66
O       5.91       3.73      14.92
O       2.68       4.66      16.11
O       1.92       3.37      17.76
O       6.25      16.06      11.00
O       7.21      14.74      12.52
O       8.41      15.21      15.02
O       0.95      15.57      13.92
O       8.79       4.08      15.05
O       1.21       3.74      13.74
O       7.44       4.65      12.54
O       6.61       3.36      10.90
O       7.87       7.43      17.68
O       6.87       6.09      16.19
O       5.69       6.55      13.65
O       3.75       6.91      14.76
O       5.33      12.75      13.64
O       3.50      12.39      14.93
O       6.71      13.32      16.12
O       7.49      12.03      17.77
O       6.25       9.90       8.12
O       7.24      11.23       6.62
O       8.42      10.77       4.09
O       0.95      10.41       5.20
O       8.78       4.57       4.08
O       1.21       4.91       5.37
O       7.40       4.00       6.56
O       6.62       5.30       8.21
O       7.86       1.24       1.44
O       6.91       2.58       2.96
O       5.69       2.11       5.46
O       3.75       1.75       4.36
O       5.32      13.23       5.49
O       3.49      13.57       4.18
O       6.69      12.67       2.99
O       7.50      13.96       1.35
