16

V       5.68       2.90      14.08
V       2.07       3.19      14.08
O       2.50       1.85      12.67
C       7.27       4.70      12.22
O       6.11       4.23      12.67
O       4.87       1.70      15.47
O       8.48       4.38      15.47
O       6.10       4.25      15.48
O       2.49       1.83      15.48
O       4.88       1.70      12.68
C       3.65       1.36      15.88
O       8.49       4.39      12.68
C       7.26       4.73      15.88
O       3.70       3.89      14.08
C       3.66       1.38      12.22
O       7.31       2.20      14.08
