39

Zn      12.61      12.88      14.81
Zn      14.36      10.86       9.61
C      11.96      12.09      10.52
Zn      16.74      12.95       9.67
C      19.20      11.91      10.48
Zn      14.98      14.97      14.76
Zn      12.60      15.29      12.77
O      16.79      14.27      14.92
O      10.80      15.00      13.64
O      10.66      12.87      14.38
Zn      14.61      12.88      12.19
O      14.14      15.24      16.57
Zn      16.75      10.54      11.65
O      13.76      13.94      13.64
C      15.14       8.26      10.45
O      12.27      15.56      10.87
C      15.79      15.48      10.52
O      16.96      10.26      13.55
O      15.56      11.87      10.78
C      17.35      13.72      13.90
C      10.13      13.97      13.98
C      13.22      14.58      17.14
C      11.49      16.54      10.52
C      17.80       9.33      13.90
C      13.51      10.34      13.87
C      14.22      17.56      13.95
C      16.12      11.28       7.29
O      13.06      10.98      14.88
O      13.10      17.03      13.64
O      15.26      16.90      14.31
O      12.55      13.60      16.68
O      12.53      11.54       9.51
O      18.54      10.87      10.79
O      18.68      13.03      10.12
O      15.05      10.78       7.74
O      16.27      14.84       9.52
O      16.25       8.79      10.79
O      14.11       8.92      10.05
O      16.92      12.09       7.87
