39

O       5.63       4.41      21.72
O       5.67      10.46      23.00
O       7.80      10.35      22.26
O       5.00       7.16      20.02
Zn       7.54       8.43      21.83
Zn       5.17       6.30      21.83
Zn       9.31       6.37      27.03
Zn       6.94       4.28      26.97
O      11.26       6.38      26.60
Zn       9.31       3.97      24.99
Zn       5.16       8.69      23.87
O       5.12       5.01      27.14
O       7.79       3.99      28.77
Zn       7.29       6.38      24.40
O      11.12       4.25      25.86
O       9.58       3.71      23.08
O       8.15       5.32      25.86
O       6.34       7.38      22.96
O       4.92       9.00      25.77
C       6.10       3.78      22.74
C       6.77      10.99      22.68
C       4.55       5.55      26.12
C      11.78       5.29      26.19
C      10.41       2.77      22.74
C       8.69       4.67      29.35
C       5.78       8.00      19.48
C       4.08       9.93      26.12
O       8.82       8.27      27.12
C       8.37       8.91      26.10
O       6.63       2.36      26.53
O       9.32       5.68      28.90
C       7.67       1.70      26.17
O       9.36       7.70      21.72
O       3.37       8.40      23.00
O       3.23       6.25      22.33
O       6.82       8.54      19.96
O       8.79       2.23      25.86
C       9.93       7.17      22.73
C       2.70       7.36      22.69
