368

Zn      17.26      15.61      12.56
Zn      15.03      14.11      14.21
Zn      17.55      15.32      15.78
Zn      15.20      17.20      14.46
Zn      13.31       2.79       1.68
Zn      15.54       1.25       0.03
Zn      15.58       2.50      26.92
Zn      17.96       4.34      28.23
Zn       4.88      10.05      15.90
Zn       7.12      11.54      14.27
Zn       4.60      10.33      12.68
Zn       6.94       8.46      13.98
Zn       8.83      22.83      26.75
Zn       6.60      24.36      28.43
Zn       6.55      23.08       1.50
Zn       4.18      21.27       0.23
H       1.78      16.76      12.06
H       4.26      16.79      11.72
H       4.76      14.25      15.14
H       2.28      14.25      15.51
H       8.47      17.80      14.87
H      10.98      17.78      14.95
H      10.99      13.80      13.32
H       8.52      13.87      13.13
H      14.06      11.96      18.09
H      14.24      10.99      20.37
H      18.53      10.59      19.86
H      18.36      11.44      17.54
H      17.93       8.73      23.25
H      18.31       6.88      24.90
H      14.28       5.51      24.30
H      13.84       7.49      22.81
H      15.04      10.68      12.06
H      14.83       8.80      10.43
H      16.48      11.28       7.34
H      16.73      13.17       8.98
H      13.86       7.04       6.70
H      13.32       5.51       4.81
H      16.14       7.56       2.28
H      16.68       9.13       4.17
H       9.32       3.81       2.20
H       6.84       3.81       2.55
H       8.91       1.40      27.50
H      11.39       1.43      27.13
H       5.21       4.86      27.83
H       2.70       4.89      27.78
H      19.55       0.94       1.01
H       2.54       0.96       1.18
H      19.14      24.82      24.58
H      18.95      23.87      22.29
H      14.67      23.43      22.84
H      14.85      24.28      25.15
H      15.29      21.59      19.44
H      14.88      19.75      17.78
H      18.86      18.28      18.44
H      19.34      20.25      19.93
H      15.51      23.52       2.14
H      15.75      21.63       3.77
H      14.14      24.09       6.89
H      13.77       0.33       5.26
H      16.72      19.80       7.49
H      17.24      18.27       9.39
H      14.48      20.39      11.92
H      13.95      21.96      10.02
H      20.38       8.93      16.38
H      17.91       8.91      16.75
H      17.36      11.41      13.30
H      19.84      11.41      12.91
H      13.67       7.89      13.59
H      11.17       7.89      13.52
H      11.15      11.85      15.20
H      13.62      11.80      15.38
H       8.09      13.69      10.40
H       7.90      14.62       8.11
H       3.62      15.06       8.64
H       3.79      14.22      10.96
H       4.21      16.82       5.17
H       3.82      18.68       3.53
H       7.82      20.10       4.19
H       8.28      18.11       5.65
H       7.04      14.97      16.38
H       7.27      16.85      18.02
H       5.65      14.38      21.12
H       5.37      12.49      19.48
H       8.28      18.58      21.75
H       8.81      20.11      23.65
H       6.04      18.01      26.19
H       5.50      16.44      24.30
H      12.84      21.68      26.24
H      15.32      21.70      25.90
H      13.23      24.21       0.88
H      10.74      24.16       1.25
H      16.94      20.68       0.60
H      19.44      20.68       0.69
H      22.05      24.67      27.55
H      19.58      24.62      27.33
H       3.03       0.70       3.90
H       3.21       1.71       6.15
H       7.46       2.23       5.58
H       7.30       1.29       3.29
H       6.86       4.05       8.98
H       7.30       5.89      10.63
H       3.32       7.40      10.00
H       2.82       5.43       8.52
H       6.60       2.16      26.32
H       6.36       4.03      24.67
H       7.99       1.55      21.58
H       8.37      25.32      23.23
H       5.38       5.82      20.93
H       4.89       7.35      19.03
H       7.66       5.23      16.52
H       8.17       3.66      18.42
C      19.88      15.45      13.95
C       1.88      15.49      13.79
C       2.44      16.21      12.73
C       3.82      16.22      12.54
C       4.65      15.49      13.40
C       4.10      14.79      14.48
C       2.72      14.80      14.68
C       6.11      15.48      13.15
C       8.33      15.84      13.98
C       9.04      16.94      14.51
C      10.43      16.93      14.56
C      11.15      15.79      14.14
C      10.44      14.68      13.64
C       9.06      14.71      13.54
C      12.63      15.74      14.23
C      16.20      12.85      16.65
C      16.14      11.55      17.49
C      15.01      11.58      18.48
C      15.10      11.05      19.71
C      16.38      10.55      20.22
C      17.56      10.81      19.40
C      17.47      11.26      18.13
C      15.53       9.46      22.17
C      15.85       8.23      22.95
C      17.13       8.04      23.50
C      17.35       7.00      24.41
C      16.31       6.10      24.70
C      15.06       6.24      24.08
C      14.82       7.33      23.25
C      16.53       5.03      25.72
C      16.05      13.12      11.63
C      15.90      12.04      10.62
C      15.34      10.81      11.03
C      15.23       9.77      10.12
C      15.64       9.93       8.79
C      16.16      11.17       8.37
C      16.30      12.21       9.28
C      15.53       8.74       7.89
C      15.35       8.17       5.58
C      14.35       7.15       5.74
C      14.05       6.30       4.69
C      14.72       6.42       3.45
C      15.65       7.47       3.25
C      15.95       8.33       4.29
C      14.49       5.41       2.38
C      10.70       2.58       0.28
C       9.22       2.59       0.43
C       8.66       3.28       1.52
C       7.28       3.27       1.72
C       6.45       2.56       0.83
C       9.56       1.92      28.19
C      10.94       1.94      27.99
C       4.99       2.55       1.09
C       2.76       2.91       0.28
C       4.63       4.02      28.22
C       3.24       4.04      28.18
C      19.43       2.91       0.15
C       0.64       1.81       0.67
C       2.02       1.81       0.76
C      17.95       2.87       0.03
C      16.92       0.03      26.05
C      17.07      24.38      25.19
C      18.19      24.44      24.20
C      18.09      23.91      22.96
C      16.82      23.40      22.46
C      15.64      23.66      23.28
C      15.74      24.10      24.55
C      17.69      22.26      20.56
C      17.34      21.04      19.76
C      16.07      20.88      19.19
C      15.84      19.85      18.29
C      16.85      18.92      18.01
C      18.10      19.03      18.65
C      18.35      20.11      19.48
C      16.63      17.85      16.99
C      14.41       0.30       2.61
C      14.68      24.86       3.61
C      15.22      23.64       3.18
C      15.35      22.59       4.08
C      14.96      22.75       5.42
C      14.44      23.98       5.85
C      14.29      25.03       4.95
C      15.08      21.55       6.30
C      15.26      20.97       8.61
C      16.24      19.93       8.45
C      16.52      19.08       9.50
C      15.86      19.23      10.75
C      14.95      20.29      10.95
C      14.66      21.15       9.91
C      16.09      18.23      11.83
C       2.26      10.22      14.48
C      20.26      10.19      14.64
C      19.71       9.48      15.72
C      18.34       9.47      15.92
C      17.49      10.19      15.06
C      18.03      10.88      13.96
C      19.41      10.87      13.75
C      16.03      10.19      15.32
C      13.81       9.84      14.50
C      13.11       8.74      13.97
C      11.72       8.75      13.92
C      11.00       9.87      14.36
C      11.70      10.98      14.87
C      13.09      10.95      14.96
C       9.52       9.94      14.27
C       5.94      12.81      11.85
C       6.01      14.11      11.00
C       7.14      14.06      10.01
C       7.04      14.58       8.77
C       5.76      15.07       8.25
C       4.58      14.83       9.09
C       4.68      14.40      10.36
C       6.60      16.12       6.29
C       6.27      17.34       5.49
C       5.00      17.53       4.93
C       4.78      18.57       4.03
C       5.80      19.49       3.75
C       7.05      19.36       4.38
C       7.30      18.27       5.21
C       5.57      20.57       2.74
C       6.03      12.54      16.83
C       6.19      13.62      17.84
C       6.74      14.85      17.42
C       6.88      15.89      18.33
C       6.48      15.72      19.66
C       5.95      14.49      20.09
C       5.80      13.44      19.18
C       6.60      16.90      20.57
C       6.80      17.43      22.88
C       7.79      18.46      22.72
C       8.08      19.31      23.77
C       7.43      19.18      25.01
C       6.51      18.11      25.22
C       6.22      17.25      24.18
C       7.65      20.20      26.08
C      11.44      22.95      28.15
C      12.93      22.94      27.99
C      13.49      22.23      26.91
C      14.87      22.25      26.72
C      15.70      22.99      27.58
C      12.57      23.66       0.21
C      11.19      23.63       0.41
C      17.16      23.00      27.34
C      19.37      22.65      28.18
C      17.51      21.54       0.24
C      18.90      21.54       0.30
C       2.71      22.68      28.36
C      21.49      23.79      27.86
C      20.11      23.77      27.75
C       4.18      22.72      28.46
C       5.22      25.56       2.39
C       5.08       1.20       3.25
C       3.96       1.13       4.25
C       4.05       1.69       5.47
C       5.32       2.26       5.95
C       6.50       1.98       5.13
C       6.41       1.49       3.88
C       4.46       3.41       7.85
C       4.81       4.62       8.67
C       6.09       4.77       9.23
C       6.33       5.80      10.13
C       5.33       6.75      10.42
C       4.08       6.64       9.79
C       3.81       5.56       8.96
C       5.57       7.81      11.45
C       7.70      25.36      25.87
C       7.44       0.80      24.86
C       6.89       2.03      25.28
C       6.76       3.07      24.37
C       7.16       2.90      23.03
C       7.69       1.66      22.61
C       7.84       0.62      23.53
C       7.04       4.08      22.13
C       6.86       4.65      19.82
C       5.87       5.69      19.97
C       5.60       6.54      18.92
C       6.26       6.40      17.68
C       7.17       5.34      17.48
C       7.46       4.48      18.52
C       6.03       7.41      16.61
N       6.93      15.85      14.06
N      15.79       9.00       6.55
N      16.59       9.88      21.33
N       4.16       2.91       0.17
N      14.83      21.80       7.64
N      16.62      22.70      21.36
N      15.21       9.83      14.41
N       6.35      16.63      21.91
N       5.55      15.72       7.13
N      17.97      22.64      28.26
N       7.28       3.82      20.79
N       5.52       2.99       7.02
O      16.31      15.58      14.28
O      19.20      15.70      12.89
O       6.54      15.24      11.86
O      13.26      16.82      14.49
O      13.16      14.58      14.03
O      17.25      13.57      16.74
O      15.17      13.10      15.94
O      14.45      10.04      22.33
O      17.49       5.21      26.54
O      16.71      14.17      11.31
O      15.54      12.89      12.78
O      15.33       7.61       8.37
O      15.16       5.55       1.30
O      13.65       4.48       2.64
O      19.41      15.16      15.10
O      15.72       4.03      25.70
O      16.83       2.74      28.42
O      11.37       2.87       1.32
O       4.56       2.33       2.39
O      19.89       3.94      28.15
O      17.40       1.73       0.27
O      15.87       0.74      25.96
O      17.95       0.27      26.75
O      18.80      22.79      20.43
O      15.66      18.04      16.17
O      13.80       1.37       2.96
O      14.88       0.06       1.44
O      15.28      20.43       5.81
O      15.49      18.43      12.94
O      16.85      17.25      11.54
O      13.73       2.28      27.59
O      17.43      16.85      17.00
O       5.83      10.08      14.18
O       2.94       9.96      15.53
O      15.61      10.42      16.62
O       8.88       8.87      13.97
O       8.99      11.09      14.50
O       4.89      12.09      11.73
O       6.95      12.57      12.58
O       7.68      15.55       6.13
O       4.60      20.38       1.93
O       5.37      11.49      17.15
O       6.54      12.77      15.68
O       6.81      18.04      20.10
O       7.03      20.03      27.19
O       8.42      21.17      25.77
O       2.73      10.49      13.32
O       6.36      21.58       2.76
O       7.87      22.86      28.47
O      10.77      22.73      27.09
O      17.59      23.25      26.05
O       2.25      21.63       0.26
O       4.74      23.86      28.26
O       6.27      24.85       2.44
O       4.18      25.32       1.71
O       3.36       2.87       7.98
O       6.54       7.61      12.25
O       8.34      24.31      25.52
O       7.19      25.58      27.02
O       6.86       5.22      22.60
O       6.63       7.22      15.49
O       5.28       8.40      16.92
O       8.42      23.19       0.85
O       4.77       8.81      11.45
