28

N      11.96      17.12      17.24
N      12.05      18.47      17.16
N      12.39      18.54      22.91
N      13.58      17.90      22.70
H      12.04      18.94      16.25
H      14.25      17.90      23.52
H      13.00      14.87      18.79
H      11.24      14.88      18.61
H      11.97      15.42      20.14
H      12.46      21.03      17.56
H      13.29      20.76      19.12
H      11.52      20.94      19.06
H      15.09      15.93      21.33
H      15.87      17.50      21.01
H      14.84      16.76      19.78
H       9.77      19.04      22.37
H      10.01      19.06      20.60
H      10.55      20.43      21.60
C      12.08      15.42      19.05
C      12.13      16.82      18.54
C      12.33      18.00      19.29
C      12.27      19.05      18.36
C      12.39      20.53      18.53
C      14.95      16.91      20.86
C      13.75      17.61      21.39
C      12.61      18.09      20.72
C      11.78      18.67      21.72
C      10.46      19.33      21.56
