22

Cr       9.25       7.32       4.72
Cr      10.99       4.36       4.72
Cr      12.68       7.35       4.72
C       8.89       4.98       2.72
C      13.20       5.22       2.72
C      10.83       8.83       2.72
C       8.87       4.98       6.70
C      13.28       5.16       6.65
C      10.84       8.88       6.69
O       9.69       8.67       3.22
O       9.60       4.07       3.22
O      13.63       6.29       3.22
O       8.68       6.09       3.30
O      12.34       4.48       3.30
O      11.90       8.45       3.30
O       9.69       8.66       6.24
O       9.62       4.07       6.24
O      13.62       6.30       6.24
O       8.68       6.08       6.10
O      12.35       4.48       6.10
O      11.89       8.47       6.10
O      10.97       6.34       4.71
