29

C      16.55      22.95       9.11
C      16.80      22.65      10.60
C      18.30      22.78      10.93
C      19.06      26.48      11.12
C      18.55      25.24      11.44
C      18.84      24.14      10.61
C      19.62      24.39       9.47
C      20.11      25.67       9.21
N      13.19      21.27       7.03
N      19.84      26.70      10.04
H      13.42      19.57       8.21
H      15.38      20.45       9.45
H      14.85      24.18       7.33
H      13.08      23.07       6.01
H      17.36      22.49       8.52
H      16.61      24.03       8.93
H      16.21      23.32      11.23
H      16.50      21.62      10.85
H      18.86      22.03      10.37
H      18.46      22.58      12.00
H      18.87      27.35      11.75
H      17.95      25.12      12.34
H      19.87      23.58       8.78
H      20.73      25.90       8.34
C      13.79      20.58       8.03
C      14.85      21.10       8.76
C      15.29      22.41       8.51
C      14.58      23.15       7.56
C      13.58      22.54       6.82
