43

H      16.75       5.74      10.10
H      24.34       5.54       9.96
H      17.36       4.35       5.95
H      19.30       3.61       4.66
O      15.52       5.73       9.17
O      15.18       4.61       7.23
O      25.59       6.45       9.82
H      21.21       4.60      10.39
H      19.88       5.48      11.12
O      17.73       5.58      10.32
O      23.36       5.36      10.14
H      23.76       9.86      10.61
O      25.93       8.58      10.52
H      18.76       7.40      10.46
H      21.81      11.30      10.98
H      19.34      11.60      11.12
H      17.84       9.65      10.83
H      21.76       3.27       4.45
H      23.25       3.88       6.35
C      15.95       5.09       8.08
C      25.16       7.65      10.23
C      18.01       4.56       6.80
C      17.44       5.00       7.98
C      18.29       5.28       9.11
C      19.68       5.18       9.02
C      20.26       4.71       7.79
C      19.40       4.38       6.68
C      19.97       3.86       5.48
H      22.33       4.75       8.45
C      22.17       4.01       6.45
C      21.65       4.51       7.63
C      20.55       5.46      10.25
C      23.10       9.00      10.53
C      23.67       7.75      10.33
C      22.80       6.61      10.23
C      21.41       6.72      10.29
C      20.84       8.02      10.48
C      21.71       9.17      10.63
C      21.14      10.45      10.87
C      19.77      10.62      10.94
C      18.92       9.51      10.78
C      19.44       8.24      10.56
C      21.33       3.67       5.37
