29

N      20.06      20.22       8.31
N      26.71      24.25      13.04
C      20.66      21.06       7.44
C      21.72      21.88       7.80
C      22.15      21.90       9.14
C      21.45      21.11      10.05
C      20.44      20.27       9.60
C      23.42      22.60       9.55
C      23.67      23.99       8.96
C      25.17      24.35       9.02
C      25.93      25.27      12.61
C      25.42      25.33      11.33
C      25.71      24.30      10.42
C      26.49      23.23      10.88
C      26.97      23.23      12.19
H      20.29      21.04       6.42
H      22.25      22.43       7.03
H      21.72      21.09      11.11
H      19.95      19.58      10.28
H      24.22      21.92       9.21
H      23.48      22.63      10.64
H      23.08      24.75       9.49
H      23.37      24.04       7.90
H      25.72      23.64       8.39
H      25.33      25.35       8.61
H      25.73      26.05      13.33
H      24.82      26.19      11.03
H      26.73      22.40      10.23
H      27.59      22.43      12.59
