29

N       7.02       9.98      16.06
N       0.70       6.05      11.63
H       4.80       6.68      13.34
H       6.13       5.83      14.09
H       7.17      10.72      14.13
H       6.07       8.77      13.06
H       5.53       7.12      17.02
H       6.67       9.10      17.91
H       4.70       5.45      16.18
H       4.13       4.66      14.74
H       3.03       7.39      15.64
H       2.32       5.84      16.11
H       0.50       8.11      11.65
H       1.84       8.40      13.76
H       2.23       4.11      13.91
H       1.03       4.00      11.77
C       5.25       6.45      14.31
C       6.81       9.89      14.73
C       6.19       8.79      14.14
C       5.76       7.73      14.94
C       5.89       7.88      16.33
C       6.52       9.00      16.84
C       4.28       5.65      15.19
C       2.91       6.35      15.33
C       0.93       7.26      12.18
C       1.65       7.41      13.37
C       2.13       6.28      14.04
C       1.89       5.03      13.45
C       1.20       4.96      12.25
