75

H       7.15      15.82       5.49
H       8.53      11.83       6.46
H      10.44      13.24       5.64
H      12.72      12.07       2.19
H      10.73      12.38       0.75
H       4.33      13.53       2.49
H       4.99      15.18       2.36
H       3.66      13.64       0.04
H       2.88      14.92       1.00
H       4.28      15.30      -0.04
H       6.01      13.99       3.94
H       8.11      15.52       0.65
H       7.97      17.40      -0.95
H       8.38      14.68      -4.25
H       8.77      10.36      -2.22
H       9.95       9.31      -0.40
H       8.25       8.89      -0.72
H       7.91       8.31       1.69
H       9.27       7.36       1.02
H       9.59       8.77       2.05
H      10.85      12.14      -4.17
H       9.10      10.88      -7.88
H       6.55      11.97      -4.58
C       8.09      11.97       9.15
C       7.80      13.00       8.11
C       7.21      14.20       8.44
C       6.98      15.23       7.57
C       7.32      15.01       6.21
C       7.85      13.78       5.79
C       8.11      12.79       6.75
C       6.41      16.53       8.00
C       8.05      13.55       4.34
C       9.31      13.16       3.78
C      10.48      13.03       4.58
C      11.68      12.65       4.00
C      11.77      12.39       2.61
C      10.66      12.55       1.82
C       9.40      12.93       2.36
C       8.26      13.12       1.52
C       7.06      13.53       2.10
C       4.77      14.26       1.80
C       3.85      14.55       0.62
C       6.96      13.73       3.50
C       8.35      12.89       0.06
C       8.29      13.98      -0.86
C       8.15      15.33      -0.41
C       8.07      16.38      -1.30
C       8.15      16.13      -2.69
C       8.30      14.85      -3.18
C       8.38      13.75      -2.28
C       8.55      12.41      -2.74
C       8.63      11.37      -1.84
C       8.52      11.60      -0.44
C       8.95       9.26       0.04
C       8.93       8.37       1.28
C       8.68      12.09      -4.19
C       9.96      11.94      -4.76
C      10.10      11.52      -6.08
C       8.98      11.23      -6.86
C       7.70      11.41      -6.31
C       7.55      11.85      -4.99
C      11.46      11.34      -6.68
C       6.50      11.11      -7.14
Cl      13.12      12.50       4.97
Cl       8.05      17.48      -3.79
O       7.72      12.20      10.34
O       8.73      10.92       8.75
O       5.82      16.55       9.15
O       6.50      17.54       7.24
O      12.49      11.71      -5.99
O      11.59      10.84      -7.84
O       6.71      10.44      -8.22
O       5.37      11.51      -6.72
O       6.00      13.72       1.25
O       8.55      10.58       0.47
