75

H       7.10       7.40      14.05
H       5.73       3.39      13.14
H       3.82       4.82      13.92
H       1.54       3.66      17.37
H       3.53       3.97      18.82
H       9.93       5.11      17.07
H       9.27       6.76      17.20
H      10.60       5.22      19.52
H      11.39       6.50      18.56
H       9.99       6.89      19.60
H       8.26       5.58      15.62
H       6.17       7.10      18.91
H       6.31       8.99      20.51
H       5.90       6.26      23.81
H       5.49       1.95      21.78
H       4.30       0.90      19.97
H       6.00       0.48      20.28
H       6.33      -0.11      17.87
H       4.97      -1.05      18.54
H       4.65       0.36      17.51
H       3.42       3.73      23.73
H       5.17       2.49      27.45
H       7.71       3.57      24.14
C       6.15       3.51      10.46
C       6.45       4.55      11.47
C       7.04       5.74      11.13
C       7.27       6.79      11.99
C       6.94       6.58      13.35
C       6.41       5.36      13.78
C       6.15       4.35      12.84
C       7.84       8.09      11.55
C       6.21       5.13      15.23
C       4.95       4.74      15.78
C       3.78       4.61      14.99
C       2.59       4.23      15.56
C       2.49       3.97      16.95
C       3.61       4.13      17.75
C       4.87       4.52      17.20
C       6.00       4.70      18.04
C       7.21       5.12      17.47
C       9.49       5.84      17.76
C      10.42       6.13      18.93
C       7.30       5.32      16.07
C       5.91       4.48      19.51
C       5.98       5.57      20.42
C       6.12       6.91      19.98
C       6.20       7.96      20.86
C       6.13       7.71      22.25
C       5.97       6.43      22.74
C       5.89       5.34      21.84
C       5.71       4.00      22.31
C       5.63       2.96      21.40
C       5.74       3.18      20.01
C       5.30       0.85      19.52
C       5.32      -0.04      18.28
C       5.58       3.68      23.76
C       4.31       3.53      24.32
C       4.16       3.12      25.65
C       5.28       2.84      26.42
C       6.56       3.02      25.88
C       6.71       3.45      24.55
C       2.80       2.94      26.24
C       7.76       2.72      26.72
Cl       1.15       4.07      14.59
Cl       6.23       9.07      23.35
O       6.54       3.69       9.27
O       5.47       2.49      10.87
O       8.45       8.11      10.41
O       7.72       9.10      12.31
O       1.77       3.31      25.55
O       2.67       2.44      27.40
O       7.54       2.04      27.79
O       8.89       3.14      26.33
O       8.27       5.31      18.31
O       5.70       2.17      19.09
