16

O       8.51       5.02       3.07
O       8.46       6.66       4.56
C      11.70       2.61       8.37
C      10.82       4.80       7.36
C      10.96       3.38       7.34
C      10.12       5.42       6.33
O      11.35       5.54       8.35
C       9.67       3.28       5.25
C       9.53       4.69       5.27
C      10.37       2.66       6.28
O      11.98       3.06       9.54
O      12.03       1.41       8.05
H      10.48       1.57       6.27
H      10.01       6.50       6.35
O       9.14       2.53       4.26
C       8.79       5.47       4.24
