16

O      -3.59       8.31       3.24
O      -5.18       7.88       1.74
C      -0.35       5.98      -2.06
H       0.28       7.44       0.04
O      -1.03       8.44       2.05
O      -0.69       5.57      -3.24
O       0.89       6.01      -1.74
H      -4.56       6.44      -0.04
C      -2.70       6.17      -1.06
C      -1.30       6.46      -1.03
C      -3.50       6.66      -0.02
C      -3.94       7.91       2.06
C      -1.59       7.71       1.06
C      -2.98       7.43       1.03
C      -0.78       7.23       0.02
O      -3.26       5.44      -2.05
