16

C       5.57      -2.17       7.44
C       6.07      -1.87       6.14
C       4.63      -3.20       7.57
C       4.68      -3.64       5.17
C       4.17      -3.94       6.47
C       5.62      -2.62       5.04
O       7.81      -0.26       6.77
O       7.16      -0.41       4.65
O       5.97      -1.49       8.53
O       3.09      -5.41       7.96
H       6.00      -2.39       4.05
C       3.19      -5.02       6.74
O       4.27      -4.32       4.08
H       4.24      -3.43       8.56
O       2.43      -5.55       5.84
C       7.06      -0.79       5.87
