16

O      -1.70       3.17       6.06
H      -0.94       4.18       8.00
O       0.56       5.18       9.87
O       3.25       5.88      10.28
O       4.35       6.34       8.39
C      -0.68       3.65       5.45
C       0.38       4.22       6.32
C       2.27       5.28       8.13
C       0.06       4.44       7.67
C       0.96       4.97       8.59
C       2.59       5.07       6.78
C       3.32       5.86       9.00
C       1.69       4.54       5.86
H       3.59       5.33       6.45
O       2.09       4.33       4.58
O      -0.60       3.63       4.17
