16

C      -3.68       5.95       8.94
H      -7.95       5.69       7.00
O      -6.45       7.02       8.66
O      -3.75       7.11       9.47
O      -2.65       5.20       9.14
C      -4.74       5.38       8.07
C      -6.04       5.93       7.96
C      -4.41       4.22       7.34
C      -7.68       3.56       5.51
C      -6.62       4.13       6.38
C      -5.32       3.58       6.49
C      -6.95       5.29       7.11
H      -3.41       3.82       7.45
O      -4.91       2.49       5.79
O      -7.61       2.40       4.98
O      -8.70       4.31       5.31
