70

O       8.19       9.28      15.48
Lu       7.05       8.16      17.04
Lu      -2.58      15.95      17.00
Lu      -4.37       3.50      17.04
O       8.68       7.14      15.87
O       2.39       6.89      15.91
O       5.11       7.74      16.46
O       3.84      10.32      16.61
O      -0.48       7.67      15.92
O       2.76       8.36      18.04
O       6.73       9.85      18.42
O       0.57       5.38      14.38
O       0.97       6.46      18.09
O       0.35      10.65      13.54
O       1.56       9.56      20.32
O       6.66       7.77      19.23
O       3.44       8.86      14.45
O       0.75      12.43      15.90
O      -1.34      14.37      16.45
O      -2.94      11.99      16.62
O       1.50       9.56      15.91
O      -0.69      12.03      18.03
O      -3.91      14.91      18.41
O       2.96      11.60      14.36
O       1.85      11.43      18.07
O      -1.50       8.78      13.54
O      -1.12      10.41      20.32
W       3.42       8.40      16.36
W       0.65       6.12      16.24
O      -3.24       8.24      15.92
O      -3.83       5.43      16.50
O      -0.99       5.27      16.63
O      -1.13      10.33      15.92
O      -2.14       7.21      18.05
W       2.29      11.31      16.22
O      -2.81       2.94      18.49
W      -2.44       6.59      16.38
W      -3.03      10.14      16.23
O      -3.62      10.57      14.38
O      -2.90       9.70      18.09
C      -5.65       1.14      13.98
O      -4.59       4.06      19.23
C      -5.20       1.89      15.17
O      -2.04       6.34      14.47
W      -0.32       7.06      14.07
O       1.05       8.11      13.54
O      -0.51       7.66      20.32
O      -0.02       9.20      17.75
C      -4.03      18.20      13.95
C      -3.58      17.45      15.14
O      -2.02      15.81      19.18
C       9.67       8.20      13.93
W       0.94       8.12      19.15
C       8.82       8.21      15.14
O      -1.49      12.35      14.44
C       5.30       9.47      20.30
W       1.94       9.99      14.05
C       6.29       9.01      19.31
W      -1.08      12.58      16.35
C      -2.87      13.83      20.28
C      -2.95      14.91      19.29
C      -2.48       4.41      20.35
W       0.43      10.58      19.15
C      -3.34       3.76      19.36
W      -1.73      10.49      14.06
O      -3.94       1.98      15.44
W      -1.45       8.91      19.15
O      -6.05       2.50      15.94
O      -4.15      16.33      15.46
O      -2.59      17.87      15.87
