20

C      15.44       5.70       1.99
C      15.44       5.27       0.50
C      14.23       3.68       2.57
C      16.65       3.68       2.57
C      14.23       3.26       1.08
C      16.65       3.26       1.08
H      13.35       4.28       2.84
H      17.53       4.27       2.83
H      14.27       2.81       3.24
H      16.62       2.81       3.24
H      14.24       2.17       0.97
H      16.64       2.17       0.96
H      13.35       3.65       0.56
H      17.52       3.65       0.55
N      15.44       4.50       2.88
H      16.33       6.29       2.25
H      14.56       6.29       2.25
H      14.55       5.64      -0.03
H      16.33       5.63      -0.03
N      15.43       3.79       0.39
