20

C      11.17      18.66       2.51
C      12.01      17.40       2.52
C      11.77      19.41       4.70
C      11.40      16.67       4.70
C      10.19      17.62       4.49
C      12.98      18.46       4.50
H      11.76      19.55       2.23
H      11.43      16.50       2.25
H      10.35      18.58       1.79
H      12.85      17.47       1.81
H      11.44      19.45       5.74
H      11.72      16.63       5.75
H      12.00      20.43       4.38
H      11.16      15.64       4.38
H       9.43      17.19       3.83
H      13.74      18.89       3.83
H       9.68      17.86       5.44
H      13.48      18.23       5.45
N      10.63      18.91       3.88
N      12.55      17.16       3.90
