20

H       9.82      13.75       2.81
H       5.64      13.75       2.81
H       8.91      15.21       3.23
H       6.55      15.21       3.23
H       8.93      15.88       0.96
H       6.53      15.88       0.97
H       9.82      14.40       0.53
H       5.64      14.40       0.54
H       6.84      11.75       2.21
H       8.61      11.74       2.21
H       8.62      12.42      -0.06
H       6.84      12.42      -0.06
C       7.73      12.34       1.96
N       7.73      13.53       2.86
C       7.73      12.78       0.48
C       8.93      14.35       2.55
C       6.52      14.35       2.56
C       8.94      14.79       1.07
C       6.52      14.79       1.07
N       7.73      14.26       0.37
