20

C      10.55      21.57       8.57
C      13.09      22.37       9.58
C      10.56      23.76       9.57
C      11.71      22.00       7.63
C      11.92      22.00      10.51
C      11.76      24.18       8.68
H      10.58      20.49       8.79
H       9.57      21.76       8.11
H      13.69      21.50       9.28
H      13.77      23.10      10.05
H      11.96      22.55      11.46
H      11.92      20.93      10.77
H      12.42      24.89       9.19
H      11.43      24.65       7.74
H       9.60      23.96       9.09
H      10.55      24.29      10.53
H      11.34      22.47       6.71
H      12.34      21.15       7.34
N      12.58      22.99       8.32
N      10.61      22.30       9.87
