20

C      15.44       9.44       3.94
C      15.44      10.90       3.46
C      14.23      10.09       5.93
C      16.65      10.09       5.93
C      16.64      11.56       5.46
C      14.24      11.57       5.46
H      14.23      10.00       7.02
H      16.64      10.00       7.03
H      13.35       9.55       5.56
H      17.53       9.54       5.56
H      17.53      11.81       4.87
H      13.35      11.82       4.87
H      16.60      12.26       6.30
H      14.29      12.27       6.30
N      15.44       9.38       5.42
N      15.44      11.83       4.62
H      16.33       8.89       3.60
H      14.55       8.89       3.59
H      14.55      11.14       2.86
H      16.33      11.14       2.86
