20

H       5.86      21.77       8.10
H       4.85      20.50       8.77
C       4.88      21.57       8.55
C       2.34      22.38       9.58
C       4.88      23.76       9.57
C       3.72      22.01       7.63
C       3.53      22.00      10.51
C       3.68      24.18       8.68
H       1.67      23.10      10.06
H       1.75      21.50       9.29
H       4.89      24.29      10.53
H       5.84      23.96       9.08
H       3.08      21.17       7.34
H       4.09      22.48       6.71
H       3.52      20.93      10.76
H       3.49      22.55      11.46
H       4.00      24.65       7.75
H       3.02      24.89       9.20
N       2.85      23.00       8.32
N       4.83      22.30       9.86
