20

C      14.24      20.58      12.83
C      16.65      20.58      12.83
H      16.64      19.00      11.28
H      14.24      19.00      11.28
H      17.53      18.56      12.75
H      13.35      18.56      12.75
H      13.35      20.83      13.42
H      17.53      20.83      13.43
H      14.29      21.27      11.98
H      16.60      21.27      11.98
H      14.55      17.92      14.72
H      16.33      17.92      14.72
H      16.33      20.18      15.44
H      14.56      20.18      15.44
N      15.44      18.39      12.89
N      15.44      20.85      13.67
C      15.44      18.46      14.38
C      15.44      19.93      14.84
C      16.65      19.10      12.37
C      14.23      19.10      12.37
