21

Ni      14.94       6.47       1.97
Ni      12.21       8.01       3.41
H      13.35       7.90       0.81
H      13.81       9.07       1.89
C      12.58       5.02       2.73
C      14.58       7.35       4.90
C      16.33       4.00       1.05
C      10.82       9.10       5.80
C      12.54      10.78       2.51
C      16.89       4.56       3.22
C      10.26       6.89       5.39
C      14.60       7.17      -0.86
N      10.86       8.02       4.98
N      16.30       4.90       2.06
O      12.06       6.00       3.36
O      13.65       8.21       4.79
O      15.10       6.65       3.97
O      15.38       6.65       0.02
O      13.58       8.05       1.82
O      13.51       5.07       1.86
O      11.77       9.94       3.09
