25

Ca      10.39       6.59       3.72
Ca      10.81       6.62      -3.72
Ca      10.60       6.61       0.00
C      12.87       8.03      -5.98
C       9.13       8.55      -2.45
C      13.00       8.21      -1.68
C      10.27       4.25      -2.25
O       9.43       5.51       5.59
O      11.48       4.32       3.49
O      11.74       5.71       1.82
O       8.91       5.26       0.69
O       8.41       5.44       2.85
O      11.67       8.65       3.22
O      10.13       8.13       1.71
O      11.77       7.70      -5.59
O       9.72       8.89      -3.49
O       9.46       7.50      -1.82
O      12.28       7.95      -0.69
O      12.79       7.77      -2.85
O       9.52       4.56      -3.22
O      11.06       5.08      -1.71
C       8.33       5.18       5.98
C      12.07       4.66       2.45
C       8.20       5.00       1.68
C      10.93       8.96       2.25
