316

C      15.18      -4.22       7.32
C      -1.70      -3.62       7.19
C      -0.67      -3.97       8.06
C      -0.88      -4.93       9.05
C      -6.62      21.56       9.17
C       0.72      -3.39       7.94
C       0.58       2.76      11.65
C       0.90       1.76      10.74
C       2.22       1.60      10.32
C       3.21       2.44      10.80
C       2.89       3.45      11.70
C       2.60       0.41       9.37
C       3.46      20.58       8.37
C       2.31      21.36       8.28
C       6.83      -4.40       8.67
C       8.02      -3.84       9.15
C       9.16      -4.62       9.24
C       5.63      -3.59       8.52
C       3.55       2.58       3.14
C       3.20       1.67       4.13
C       4.19       1.10       4.93
C       5.52       1.45       4.73
C       5.87       2.36       3.75
C       3.85       0.01       5.96
C       6.69      18.01       4.49
C       6.48      17.19       3.38
C       7.40      16.20       3.07
C       8.53      16.02       3.86
C       8.74      16.83       4.96
C       7.18      15.34       1.96
C       2.95       4.22       7.32
C       1.70       3.62       7.19
C       0.67       3.97       8.06
C       0.88       4.93       9.05
C       2.13       5.53       9.17
C      -0.72       3.39       7.94
C      -0.58      -2.76      11.65
C      -0.90      -1.76      10.74
C      -2.22      -1.60      10.32
C      -3.21      -2.44      10.80
C      -2.89      -3.45      11.70
C      -2.60      -0.41       9.37
C      10.19       6.51       8.37
C      11.33       5.73       8.28
C      11.30       4.40       8.67
C      10.11       3.84       9.15
C       8.97       4.62       9.24
C      12.50       3.59       8.52
C      10.09      24.51       3.14
C      14.93      -1.67       4.13
C      13.94      -1.10       4.93
C      12.61      -1.45       4.73
C       7.77      24.73       3.75
C      14.28      -0.01       5.96
C       6.95       9.08       4.49
C       7.16       9.90       3.38
C       6.25      10.89       3.07
C       5.11      11.07       3.86
C       4.90      10.26       4.96
C       6.46      11.75       1.96
C      -8.36      17.77      15.85
C       8.52      17.17      15.98
C       7.49      17.52      15.12
C       7.70      18.47      14.13
C      13.44      -8.02      14.00
C       6.10      16.93      15.24
C       6.24      10.78      11.53
C       5.92      11.79      12.43
C       4.61      11.95      12.86
C       3.61      11.10      12.38
C       3.93      10.10      11.47
C       4.22      13.13      13.80
C       3.36      -7.03      14.81
C       4.51      -7.81      14.89
C      -0.01      17.94      14.51
C      -1.19      17.39      14.03
C      -2.34      18.17      13.94
C       1.19      17.13      14.66
C       3.27      10.96      20.04
C       3.62      11.87      19.05
C       2.63      12.44      18.25
C       1.30      12.10      18.44
C       0.95      11.19      19.43
C       2.97      13.53      17.22
C       0.13      -4.46      18.69
C       0.34      -3.65      19.79
C      -0.58      -2.65      20.11
C      -1.71      -2.48      19.32
C      -1.92      -3.29      18.21
C      -0.36      -1.80      21.22
C       3.87       9.32      15.85
C       5.12       9.92      15.98
C       6.15       9.57      15.12
C       5.94       8.62      14.13
C       4.69       8.02      14.00
C       7.54      10.16      15.24
C       7.40      16.31      11.53
C       7.72      15.30      12.43
C       9.04      15.14      12.86
C      10.03      15.99      12.38
C       9.71      16.99      11.47
C       9.42      13.96      13.80
C      -3.36       7.03      14.81
C      -4.51       7.81      14.89
C      -4.47       9.15      14.51
C      -3.29       9.70      14.03
C      -2.14       8.92      13.94
C      -5.68       9.96      14.66
C      -3.27     -10.96      20.04
C      -8.11      15.22      19.05
C      -7.12      14.65      18.25
C      -5.79      14.99      18.44
C      -0.95     -11.19      19.43
C      -7.46      13.56      17.22
C      -0.13       4.46      18.69
C      -0.34       3.65      19.79
C       0.58       2.65      20.11
C       1.71       2.48      19.32
C       1.92       3.29      18.21
C       0.36       1.80      21.22
Cu       7.89      18.80       7.00
Cu       8.85      20.76       8.36
Cu       6.37      20.18       8.65
Cu       8.06      18.50       9.58
Cu       5.51       3.93       1.30
Cu       5.75       8.29       7.00
Cu       4.80       6.33       8.36
Cu       7.27       6.91       8.65
Cu       5.58       8.59       9.58
Cu       8.13      23.17       1.30
Cu      -1.07      -5.25      16.18
Cu      -2.02      -7.22      14.81
Cu       0.45      -6.64      14.52
Cu      -1.24      -4.96      13.59
Cu       1.31       9.62      21.88
Cu       1.07       5.25      16.18
Cu       2.02       7.22      14.81
Cu      -0.45       6.64      14.52
Cu       1.24       4.96      13.59
Cu      -1.31      -9.62      21.88
Cu       5.65       6.14       0.00
Cu       7.76       4.69       0.00
Cu       7.99      20.95       0.00
Cu       5.88      22.40       0.00
H       9.99      23.11       6.74
H      -1.55      -2.97       6.52
H      -0.18      -5.16       9.64
H      -6.76      20.91       9.85
H      -0.31       2.87      11.94
H       0.22       1.18      10.42
H       4.11       2.33      10.51
H       3.57       4.03      12.03
H       3.43      19.67       8.11
H       1.50      20.98       7.95
H       8.04      -2.93       9.41
H       9.97      -4.25       9.56
H       2.88       2.97       2.60
H       2.29       1.44       4.26
H       6.20       1.06       5.28
H       6.78       2.59       3.61
H       6.07      18.68       4.71
H       5.71      17.31       2.85
H       9.16      15.34       3.64
H       9.52      16.71       5.50
H       3.65       3.99       6.74
H       1.55       2.97       6.52
H       0.18       5.16       9.64
H       2.27       6.18       9.85
H       0.31      -2.87      11.94
H      -0.22      -1.18      10.42
H      14.02      -2.33      10.51
H      -3.57      -4.03      12.03
H      10.21       7.43       8.11
H      12.14       6.11       7.95
H      10.09       2.93       9.41
H       8.16       4.25       9.56
H      10.77      24.12       2.60
H      15.84      -1.44       4.26
H      11.93      -1.06       5.28
H       6.86      24.50       3.61
H       7.58       8.41       4.71
H       7.93       9.78       2.85
H       4.48      11.75       3.64
H       4.13      10.38       5.50
H      -3.17      -9.56      16.44
H       8.38      16.52      16.66
H       7.00      18.71      13.54
H      13.58      -7.37      13.33
H       7.14      10.67      11.24
H       6.60      12.37      12.76
H       2.71      11.21      12.67
H       3.25       9.52      11.15
H       3.39      -6.12      15.07
H       5.32      -7.43      15.22
H      -1.22      16.48      13.77
H      -3.15      17.79      13.61
H       3.95      10.57      20.58
H       4.53      12.11      18.92
H       0.63      12.49      17.90
H       0.04      10.95      19.57
H       0.76      -5.14      18.47
H       1.11      -3.77      20.33
H      -2.34      -1.80      19.54
H      -2.70      -3.17      17.67
H       3.17       9.56      16.44
H       5.27      10.57      16.66
H       6.64       8.38      13.54
H       4.55       7.37      13.33
H       6.51      16.42      11.24
H       7.04      14.72      12.76
H      -7.20      15.88      12.67
H      10.39      17.57      11.15
H      -3.39       6.12      15.07
H      -5.32       7.43      15.22
H      -3.27      10.61      13.77
H      -1.34       9.30      13.61
H      -3.95     -10.57      20.58
H      -9.02      14.98      18.92
H      -5.11      14.60      17.90
H      -0.04     -10.95      19.57
H      -0.76       5.14      18.47
H      -1.11       3.77      20.33
H       2.34       1.80      19.54
H       2.70       3.17      17.67
I       0.20      -7.61      20.95
I      10.25      18.31       8.05
I      12.33      -6.19      10.80
I       7.30      21.33       6.34
I       5.81      17.62       8.38
I      -0.20       7.61      20.95
I       3.39       8.78       8.05
I       5.80       6.19      10.80
I       6.34       5.76       6.34
I       7.83       9.47       8.38
I       6.62      21.16       2.22
I      -3.43      -4.76      15.13
I      -5.51      19.74      12.38
I      -0.48      -7.79      16.84
I       1.01      -4.08      14.80
I       7.02       5.94       2.22
I       3.43       4.76      15.13
I       1.02       7.35      12.38
I       0.48       7.79      16.84
I      -1.01       4.08      14.80
I       3.33       4.56       0.00
I       7.08       2.14       0.00
I      10.31      22.53       0.00
I       6.56      24.95       0.00
K       0.00      -0.00       6.67
K       6.82      13.55      16.51
N      10.48      21.92       8.31
N       1.58       3.61      12.13
N       4.64      21.13       8.85
N       4.88       2.93       2.95
N       7.83      17.83       5.28
N       3.16       5.17       8.31
N      -1.58      -3.61      12.13
N       9.00       5.96       8.85
N       8.76      24.16       2.95
N       5.82       9.26       5.28
N      -3.66      -8.37      14.87
N       5.25       9.94      11.05
N       2.18      -7.59      14.33
N       1.94      10.62      20.23
N      -1.00      -4.28      17.90
N       3.66       8.37      14.87
N       8.40      17.15      11.05
N      -2.18       7.59      14.33
N      -1.94     -10.62      20.23
N       1.00       4.28      17.90
O       0.84      -2.45       7.12
O       1.60      -3.76       8.65
O       1.65      -0.31       9.03
O       3.78       0.25       9.14
O       4.54      -4.10       8.21
O       5.65      -2.32       8.74
O       2.68      -0.16       6.24
O       4.86      -0.59       6.47
O       8.20      14.59       1.49
O       5.96      15.30       1.41
O      -0.84       2.45       7.12
O      -1.60       3.76       8.65
O      -1.65       0.31       9.03
O      14.35      -0.25       9.14
O      13.59       4.10       8.21
O      12.48       2.32       8.74
O      15.45       0.16       6.24
O      13.27       0.59       6.47
O       5.44      12.50       1.49
O       7.68      11.79       1.41
O       5.98      16.00      16.05
O       5.22      17.30      14.52
O       5.17      13.86      14.15
O       3.04      13.30      14.04
O       2.29      17.65      14.96
O       1.17      15.87      14.44
O       4.14      13.71      16.93
O       1.96      14.13      16.71
O      -1.38      -1.05      21.69
O       0.86      -1.76      21.76
O       7.66      11.09      16.05
O       8.42       9.79      14.52
O       8.47      13.23      14.15
O      -7.53      13.79      14.04
O      -6.77       9.44      14.96
O      -5.66      11.22      14.44
O      -8.63      13.38      16.93
O      -6.45      12.96      16.71
O       1.38       1.05      21.69
O      -0.86       1.76      21.76
Pr       3.24      -1.96       7.98
Pr      -3.24       1.96       7.98
Pr       3.59      15.51      15.20
Pr      10.06      11.58      15.20
Pr       9.06      13.01       0.00
Pr       4.58      14.08       0.00
