141

C       8.83      17.01      15.42
C       8.84      21.25       7.44
C       8.83      26.04      15.11
C       9.31      22.23       6.55
C       8.53      20.90       4.62
C       8.06      19.93       5.53
C       8.21      20.09       6.92
C       9.34      15.75      15.04
C       9.19      14.63      15.88
C       8.52      14.73      17.13
C       8.02      16.00      17.50
C       8.17      17.12      16.66
C       9.34      26.34      16.39
C       9.19      27.63      16.94
C       8.52      28.66      16.22
C       8.02      28.34      14.94
C       8.17      27.06      14.38
C       9.06      22.66      13.37
C       9.06      21.43      14.07
C       9.06      20.20      13.36
C       9.06      20.21      11.95
C       9.06      21.44      11.24
C       9.06      22.66      11.96
C       8.96      24.85      14.58
C       9.03      23.79      14.03
C       8.96      21.38       8.74
C       9.03      21.44       9.93
C       9.03      19.07      14.01
C       8.96      18.06      14.66
C       8.33      29.94      16.74
C       8.33      13.64      17.98
C       8.35      20.71       3.25
C       9.16      22.06       5.15
C       8.95       3.19      22.93
C       8.96      -1.00      30.95
C       8.76      -2.09      31.83
C       9.20      -0.65      33.78
C       9.39       0.43      32.89
C       9.27       0.26      31.49
C       8.81       4.49      23.45
C       8.92       5.61      22.60
C       9.18       5.46      21.22
C       9.32       4.14      20.71
C       9.21       3.02      21.56
C       8.81      -1.23      24.32
C       8.81       0.00      25.02
C       8.81      -0.00      26.44
C       8.81      -1.22      27.15
C       8.81      -2.44      26.44
C       8.88      -1.15      29.66
C       8.83      -1.21      28.46
C       8.83       1.13      24.36
C       8.87       2.13      23.71
C       9.35       6.54      20.35
C       9.36      -0.45      35.15
C       8.88      -1.92      33.23
C       8.87      21.39       1.00
C       0.25      22.14       0.31
C       0.27      -0.50      38.14
C       8.90      -1.22      37.38
C       7.93      -1.97      38.07
C       7.91      20.67       0.25
C       8.86      11.36      18.52
C       0.25      10.39      18.23
C       0.28       9.16      18.92
C       8.90       8.86      19.91
C       7.91       9.83      20.20
C       7.90      11.06      19.52
C       8.86      31.55      18.44
C       0.25      31.78      19.43
C       7.90      32.56      18.20
C       8.95      -5.86      23.32
C       8.80      -6.06      21.93
C       8.92      -7.36      21.38
C       9.19      -8.48      22.21
C       9.33      -8.26      23.60
C       9.21      -6.96      24.15
C       8.81      -2.45      25.03
C       8.87      -4.66      23.84
C       8.83      -3.59      24.38
C       9.35      -9.77      21.70
C       8.90     -11.31      19.92
C       0.28      32.99      20.15
C       7.91      33.77      18.93
H       7.60      19.08       5.19
H       7.85      19.36       7.54
H       9.51      22.79       4.53
H       7.79      18.02      16.97
H       0.24      15.63      14.14
H       9.56      13.73      15.56
H       7.53      16.13      18.39
H       0.24      25.62      16.94
H       7.53      29.05      14.38
H       7.79      26.87      13.45
H       9.56      27.80      17.88
H       9.05      19.33      11.43
H       9.05      21.42      15.09
H       9.05      23.55      11.45
H       0.18      23.08       6.89
H       7.76      19.95       2.96
H       7.73      13.77      18.77
H       7.73      30.56      16.24
H       0.04       1.36      33.24
H       9.43       1.07      30.88
H       8.74      -2.73      33.83
H       9.32       2.09      21.15
H       8.63       4.64      24.45
H       8.83       6.55      23.01
H       9.52       3.98      19.72
H       8.82       0.89      26.95
H       8.82      -1.23      23.30
H       8.82      -3.33      26.96
H       8.54      -3.02      31.47
H       0.24       0.38      35.45
H       0.22       6.39      19.49
H       1.01       0.04      37.67
H       0.96      22.67       0.82
H       7.19      20.12       0.72
H       6.24      -2.09      37.23
H       1.02       8.49      18.70
H       0.97      10.57      17.52
H       7.17      11.74      19.75
H       6.23       9.15      20.72
H       0.97      31.08      19.63
H       7.17      32.42      17.50
H       8.62      -5.27      21.30
H       9.53      -9.03      24.23
H       9.33      -6.85      25.16
H       8.82      -7.47      20.37
H       0.22     -10.44      22.27
H       1.02      33.13      20.85
H       6.23     -10.76      19.25
N       8.91      21.42       2.34
N       8.88      -1.24      36.04
N       8.91      12.50      17.83
N       8.87       7.71      20.60
N       8.91      30.38      17.80
N       8.87     -10.14      20.56
O       7.00      -2.70      37.40
O       6.97       9.61      21.17
O       6.98     -10.60      18.64
