13

C      -0.80       9.61       5.76
C      -0.30       8.94       4.67
C      -0.96       9.04       3.45
C      -2.13       9.77       3.41
C      -2.56      10.43       4.56
C      -0.43       8.32       2.23
N      -1.91      10.37       5.73
O       0.42       7.42       2.41
O      -0.87       8.63       1.08
H      -0.33       9.53       6.58
H       0.49       8.41       4.75
H      -2.63       9.82       2.61
H      -3.36      10.94       4.51
