13

H       3.87       8.10       3.92
H       2.15       9.03       2.73
H       4.01      12.57       2.96
H       5.77      11.51       4.01
N       4.97       9.70       4.09
C       3.92       9.02       3.71
C       2.87       9.58       3.01
C       2.87      10.91       2.72
C       3.97      11.64       3.13
C       5.00      11.01       3.77
C       1.78      11.54       1.91
O       0.97      10.74       1.36
O       1.77      12.78       1.79
