13

H       8.46       4.43      18.08
H       6.73       3.49      16.88
H       8.59      -0.05      17.11
H      10.36       1.01      18.17
C       8.50       3.50      17.87
C       7.45       2.95      17.17
C       7.45       1.62      16.88
C       8.55       0.89      17.28
O       5.55       1.78      15.52
O       6.36      -0.26      15.95
C       6.36       0.98      16.06
C       9.59       1.52      17.93
N       9.55       2.83      18.25
