13

C      -0.42      23.53      10.38
C       2.80      24.07      12.25
C       0.61      24.16      11.03
O       3.61      23.27      12.80
O       2.81      25.31      12.36
C       0.67      21.55      10.45
C       1.71      23.43      11.44
C       1.71      22.10      11.15
N      -0.39      22.23      10.06
H       0.71      20.62      10.23
H       2.43      21.56      11.43
H       0.57      25.10      11.20
H      -1.19      24.04      10.15
