13

C       6.29      14.15      25.59
C       5.20      13.42      25.19
C       4.16      14.04      24.54
C       7.39      13.51      26.41
C       5.25      16.03      24.60
H       5.29      16.96      24.39
H       7.02      16.02      25.59
H       5.16      12.48      25.36
H       3.39      13.54      24.30
C       6.29      15.48      25.30
N       4.20      15.35      24.22
O       8.20      14.31      26.95
O       7.39      12.27      26.52
