13

H       8.78      13.64       2.86
H      10.19      12.49       1.43
H      13.33      13.97       3.49
H      11.83      15.05       4.89
N      10.17      14.49       3.98
O      12.42      11.38       0.83
C       9.72      13.72       2.98
C      10.54      13.03       2.12
C      11.92      13.16       2.29
C      12.39      13.90       3.33
C      11.49      14.55       4.16
O      13.99      12.88       1.14
C      12.84      12.42       1.35
