13

H      -2.27       6.10      23.95
H      -3.01       7.47      25.67
H      -6.19       8.44      23.39
H      -5.40       7.00      21.76
C      -3.10       6.56      23.85
C      -3.53       7.37      24.88
C      -4.73       8.04      24.74
N      -3.78       6.39      22.72
C      -4.91       7.09      22.58
C      -5.31       8.87      25.86
C      -5.40       7.93      23.54
O      -4.94       8.64      27.06
O      -6.14       9.75      25.58
