13

O       4.08      15.23      13.16
O       3.03      17.17      12.77
C       1.14      13.20      10.98
C       2.14      13.82      11.71
C       2.10      15.20      11.87
C       1.06      15.90      11.28
N       0.11      13.86      10.44
C       3.17      15.92      12.67
C       0.09      15.19      10.59
H       1.19      12.26      10.86
H       2.85      13.32      12.09
H       1.01      16.84      11.34
H      -0.63      15.68      10.20
