13

C       9.96      15.45      22.56
C       9.46      16.12      23.64
N      11.07      14.68      22.59
C      10.12      16.01      24.86
C      11.73      14.63      23.76
C      11.29      15.28      24.90
C       9.59      16.73      26.08
H       9.50      15.53      21.73
H       8.67      16.64      23.57
H      11.80      15.23      25.70
H      12.53      14.11      23.81
O       8.75      17.63      25.90
O      10.03      16.43      27.23
