876

H       2.37      32.48      57.63
H       2.13      32.62      59.99
H      34.07       1.75      57.17
H      33.85       1.90      59.55
H      32.90       0.66      61.59
H      32.81       0.75      63.99
H       2.92       0.02      61.79
H       2.83       0.10      64.17
H       0.69      31.90      64.79
H       0.71      30.12      66.59
H       0.68      33.77       0.13
H       0.71       1.29       1.76
H       0.77       3.14      64.72
H       0.78       4.95      66.50
H      32.82       5.72       1.01
H      32.91       8.11       0.95
H       2.88       5.55       0.79
H       2.98       7.93       0.77
H       0.70       4.95       3.59
H       0.68       3.17       5.39
H       0.74      30.11       3.69
H       0.74      31.93       5.47
H       2.82       0.75       6.04
H       2.90       0.79       8.43
H      32.79       0.23       6.17
H      32.85       0.30       8.57
H      33.67      33.13      10.54
H      33.87      33.11      12.92
H       2.48       2.15      12.70
H       2.25       2.20      10.33
H      32.81      29.34       0.75
H      32.90      26.95       0.82
H       2.33      25.22       2.70
H       2.51      22.85       2.74
H      33.83      22.58      67.91
H      33.68      24.96      67.85
H       2.94      27.12       1.28
H       2.85      29.51       1.23
H       2.47       9.85      67.62
H       2.65      12.22      67.61
H      33.61      10.09       2.28
H      33.76      12.47       2.23
H       2.19      20.73       1.39
H       2.26      33.66      55.50
H       2.21      14.34       0.58
H       2.30       0.42      14.70
H       2.74       2.32      23.51
H       2.56       2.11      25.87
H      33.47      34.03      23.02
H      33.28      33.83      25.40
H       0.36      32.89      27.47
H       0.25      32.81      29.86
H       0.99       2.91      27.64
H       0.90       2.83      30.03
H       3.25       0.68      30.66
H       5.03       0.71      32.47
H       1.38       0.69      34.29
H      33.85       0.74      35.92
H      32.01       0.77      30.58
H      30.20       0.79      32.36
H      29.43      32.83      35.16
H      27.04      32.92      35.11
H      29.59       2.89      34.95
H      27.20       2.99      34.92
H      30.19       0.72      37.74
H      31.97       0.71      39.55
H       5.03       0.77      37.86
H       3.21       0.80      39.64
H       0.16       2.88      40.18
H       0.07       2.97      42.57
H       0.82      32.86      40.36
H       0.71      32.94      42.75
H       1.95      33.85      44.76
H       1.78      33.96      47.13
H      32.56       2.33      46.78
H      32.71       2.20      44.41
H       5.80      32.82      34.93
H       8.19      32.90      35.00
H       9.93       2.33      36.87
H      12.30       2.51      36.90
H      12.56      33.83      33.78
H      10.18      33.68      33.72
H       8.03       2.95      35.44
H       5.64       2.86      35.40
H      25.29       2.47      33.48
H      22.92       2.65      33.46
H      25.05      33.61      36.43
H      22.67      33.76      36.39
H      14.41       2.19      35.56
H       1.62       2.18      21.38
H      20.80       2.21      34.74
H      33.45       1.83      48.97
H       2.95      32.17      51.18
H       2.40      32.79      49.75
H       2.13      32.94      53.30
H       2.50       3.40      17.08
H       1.91       2.84      15.64
H       1.98       2.37      19.16
H      31.16      16.67       0.94
H      31.94      15.21       0.93
H      32.35      18.77       0.96
H      18.47      31.16      35.09
H      19.94      31.94      35.08
H      16.37      32.35      35.11
H      10.37       5.33      61.63
H      10.13       5.48      63.99
H       7.92       8.75      61.17
H       7.71       8.90      63.55
H       6.75       7.66      65.59
H       6.66       7.75      67.99
H      10.92       7.02      65.79
H      10.83       7.10      68.17
H       8.69       4.75       0.50
H       8.71       2.97       2.30
H       8.68       6.62       4.13
H       8.71       8.29       5.76
H       8.77      10.14       0.42
H       8.78      11.95       2.20
H       6.68      12.72       5.01
H       6.77      15.11       4.95
H      10.88      12.55       4.79
H      10.98      14.93       4.77
H       8.70      11.95       7.59
H       8.68      10.17       9.39
H       8.74       2.97       7.69
H       8.74       4.78       9.47
H      10.82       7.75      10.04
H      10.90       7.79      12.43
H       6.64       7.23      10.17
H       6.70       7.30      12.57
H       7.52       5.98      14.54
H       7.72       5.96      16.92
H      10.48       9.15      16.70
H      10.25       9.20      14.33
H       6.67       2.19       4.75
H       6.75      33.95       4.82
H      10.33      32.22       6.70
H      10.51      29.85       6.74
H       7.69      29.58       3.61
H       7.53      31.96       3.55
H      10.94      34.12       5.28
H      10.85       2.36       5.23
H      10.47      16.85       3.33
H      10.65      19.22       3.31
H       7.46      17.09       6.28
H       7.61      19.47       6.23
H      10.19      27.73       5.39
H      10.26       6.51      59.50
H      10.21      21.34       4.58
H      10.30       7.42      18.70
H      10.74       9.32      27.51
H      10.56       9.11      29.87
H       7.32       6.88      27.02
H       7.13       6.69      29.40
H       8.36       5.74      31.47
H       8.25       5.66      33.86
H       8.99       9.91      31.64
H       8.90       9.83      34.03
H      11.25       7.68      34.66
H      13.03       7.71      36.47
H       9.38       7.69      38.29
H       7.70       7.74      39.92
H       5.86       7.77      34.58
H       4.05       7.79      36.36
H       3.28       5.69      39.16
H       0.89       5.77      39.11
H       3.44       9.89      38.95
H       1.06       9.99      38.92
H       4.05       7.72      41.74
H       5.82       7.71      43.55
H      13.03       7.77      41.86
H      11.21       7.80      43.64
H       8.16       9.88      44.18
H       8.07       9.97      46.57
H       8.82       5.72      44.36
H       8.71       5.80      46.75
H       9.95       6.70      48.76
H       9.78       6.81      51.13
H       6.41       9.33      50.78
H       6.57       9.20      48.41
H      13.80       5.68      38.93
H      16.19       5.75      39.00
H      17.93       9.33      40.87
H      20.30       9.51      40.90
H      20.56       6.69      37.78
H      18.18       6.53      37.72
H      16.03       9.95      39.44
H      13.64       9.86      39.40
H      33.29       9.47      37.48
H      30.92       9.65      37.46
H      33.05       6.46      40.43
H      30.67       6.61      40.39
H      22.41       9.19      39.56
H       9.62       9.18      25.38
H      28.80       9.21      38.74
H       7.30       8.83      52.97
H      10.95       5.02      55.18
H      10.40       5.64      53.74
H      10.13       5.80      57.30
H      10.50      10.40      21.08
H       9.91       9.84      19.64
H       9.98       9.37      23.16
H       5.01      23.67       4.94
H       5.79      22.21       4.93
H       6.20      25.77       4.96
H      26.47       4.01      39.09
H      27.94       4.79      39.08
H      24.37       5.20      39.11
H      18.37      12.33      65.63
H      18.13      12.48      67.99
H      15.92      15.75      65.17
H      15.71      15.90      67.55
H      14.75      14.66       1.30
H      14.66      14.75       3.69
H      18.92      14.02       1.49
H      18.83      14.10       3.87
H      16.69      11.75       4.50
H      16.71       9.97       6.30
H      16.68      13.62       8.13
H      16.71      15.29       9.76
H      16.77      17.14       4.42
H      16.78      18.95       6.20
H      14.68      19.72       9.01
H      14.77      22.11       8.95
H      18.88      19.55       8.79
H      18.98      21.93       8.77
H      16.70      18.95      11.59
H      16.68      17.17      13.39
H      16.74       9.97      11.69
H      16.74      11.78      13.47
H      18.82      14.75      14.04
H      18.90      14.79      16.43
H      14.64      14.23      14.17
H      14.70      14.30      16.57
H      15.52      12.98      18.54
H      15.72      12.96      20.92
H      18.48      16.15      20.70
H      18.25      16.20      18.33
H      14.67       9.19       8.75
H      14.75       6.81       8.82
H      18.33       5.07      10.70
H      18.51       2.70      10.74
H      15.69       2.43       7.61
H      15.53       4.81       7.55
H      18.94       6.97       9.28
H      18.85       9.36       9.23
H      18.47      23.85       7.33
H      18.65      26.22       7.31
H      15.46      24.09      10.28
H      15.61      26.47      10.23
H      18.19       0.58       9.39
H      18.26      13.51      63.50
H      18.21      28.34       8.58
H      18.30      14.42      22.70
H      18.74      16.32      31.51
H      18.56      16.11      33.87
H      15.32      13.88      31.02
H      15.13      13.69      33.40
H      16.36      12.74      35.47
H      16.25      12.66      37.86
H      16.99      16.91      35.64
H      16.90      16.83      38.03
H      19.25      14.68      38.66
H      21.03      14.71      40.47
H      17.38      14.69      42.29
H      15.70      14.74      43.92
H      13.86      14.77      38.58
H      12.05      14.79      40.36
H      11.28      12.69      43.16
H       8.89      12.77      43.11
H      11.44      16.89      42.95
H       9.06      16.99      42.92
H      12.05      14.72      45.74
H      13.82      14.71      47.55
H      21.03      14.77      45.86
H      19.21      14.80      47.64
H      16.16      16.88      48.18
H      16.07      16.97      50.57
H      16.82      12.72      48.36
H      16.71      12.80      50.75
H      17.95      13.70      52.76
H      17.78      13.81      55.13
H      14.41      16.33      54.78
H      14.57      16.20      52.41
H      21.80      12.68      42.93
H      24.19      12.75      43.00
H      25.93      16.33      44.87
H      28.30      16.51      44.90
H      28.56      13.69      41.78
H      26.18      13.53      41.72
H      24.03      16.95      43.44
H      21.64      16.86      43.40
H       7.14      16.47      41.48
H       4.77      16.65      41.46
H       6.90      13.46      44.43
H       4.52      13.61      44.39
H      30.41      16.19      43.56
H      17.62      16.18      29.38
H       2.65      16.21      42.74
H      15.30      15.83      56.97
H      18.95      12.02      59.18
H      18.40      12.64      57.74
H      18.13      12.80      61.30
H      18.50      17.40      25.08
H      17.91      16.84      23.64
H      17.98      16.37      27.16
H      13.01      30.67       8.94
H      13.79      29.21       8.93
H      14.20      32.77       8.96
H       0.32      11.01      43.09
H       1.79      11.79      43.08
H      32.37      12.21      43.11
C       0.68      32.09      65.80
C       0.69      31.12      66.78
C       0.69      31.76      68.02
C       0.68      33.35      66.42
C       0.69       0.45      65.73
C       0.70       1.72      66.37
C       0.72       3.32      67.94
C       0.75       3.95      66.69
C       0.74       2.96      65.72
C       0.72       3.98       0.90
C       0.70       3.31       2.16
C       0.69       1.72       3.77
C       0.69       2.97       4.39
C       0.70       3.94       3.41
C       0.69       0.47       4.46
C       0.70      33.34       3.82
C       0.70      31.74       2.25
C       0.72      31.12       3.50
C       0.72      32.10       4.47
C       0.70      31.08       0.99
C       0.75      29.65       0.99
C       1.98      28.98       1.14
C       2.03      27.57       1.18
C       0.85      26.78       1.06
C      33.77      27.47       0.89
C      33.72      28.88       0.86
C       0.91      25.35       1.12
C       0.14      24.53       0.25
C       0.23      23.12       0.28
C       1.11      22.47       1.19
C       1.87      23.28       2.07
C       1.77      24.68       2.04
C       0.73       0.49       5.88
C       1.95       0.66       6.57
C       1.99       0.69       7.97
C       0.81       0.56       8.75
C      33.73       0.38       8.05
C      33.69       0.35       6.64
C       0.86       0.59      10.18
C       1.70       1.51      10.86
C       1.83       1.49      12.26
C       1.11       0.56      13.04
C       0.24      33.81      12.38
C       0.11      33.83      10.98
C       0.77       5.41       0.90
C      33.74       6.18       0.96
C      33.79       7.59       0.94
C       0.88       8.28       0.85
C       2.06       7.49       0.80
C       2.01       6.08       0.83
C       0.95       9.71       0.81
C       1.86      10.38      68.25
C       1.96      11.79      68.23
C       1.14      12.59       0.76
C       0.21      11.93       1.60
C       0.12      10.52       1.62
C       0.74       0.43      64.30
C      33.72       0.61      63.53
C       1.96       0.22      63.64
C       2.01       0.17      62.23
C       0.85       0.33      61.44
C      33.77       0.56      62.12
C       0.91       0.21      60.01
C       0.25       1.13      59.15
C       0.38       1.04      57.75
C       1.16       0.02      57.16
C       1.79      33.23      58.01
C       1.66      33.32      59.41
C       1.28      21.09       1.19
C       1.35       0.49      14.40
C       1.31      13.97       0.76
C       1.41      34.09      55.79
C       3.05       0.68      31.67
C       4.02       0.70      32.65
C       3.39       0.69      33.90
C       1.80       0.68      32.28
C       0.55       0.69      31.60
C      33.43       0.71      32.23
C      31.82       0.73      33.80
C      31.20       0.76      32.55
C      32.19       0.75      31.58
C      31.16       0.73      35.06
C      31.83       0.72      36.32
C      33.42       0.73      37.93
C      32.17       0.72      38.55
C      31.20       0.72      37.56
C       0.52       0.74      38.62
C       1.80       0.74      37.98
C       3.40       0.73      36.41
C       4.02       0.76      37.66
C       3.04       0.77      38.63
C       4.06       0.72      35.15
C       5.49       0.76      35.15
C       6.17       1.99      35.31
C       7.58       2.04      35.34
C       8.36       0.86      35.23
C       7.67      33.78      35.06
C       6.26      33.73      35.03
C       9.80       0.92      35.28
C      10.61       0.14      34.42
C      12.02       0.24      34.45
C      12.67       1.11      35.35
C      11.87       1.87      36.23
C      10.46       1.77      36.20
C       0.50       0.79      40.04
C       0.28       2.01      40.71
C       0.22       2.06      42.12
C       0.38       0.89      42.90
C       0.61      33.82      42.22
C       0.67      33.77      40.82
C       0.28       0.94      44.33
C      33.41       1.70      44.97
C      33.31       1.77      46.37
C       0.08       1.08      47.21
C       1.09       0.32      46.57
C       1.19       0.25      45.17
C      29.73       0.78      35.06
C      28.96      33.75      35.12
C      27.56      33.80      35.09
C      26.86       0.89      35.00
C      27.65       2.07      34.96
C      29.06       2.02      34.98
C      25.43       0.95      34.96
C      24.76       1.87      34.11
C      23.36       1.96      34.09
C      22.55       1.14      34.92
C      23.21       0.21      35.76
C      24.62       0.12      35.78
C       0.57       0.74      30.17
C       0.40      33.71      29.40
C       0.78       1.96      29.50
C       0.84       2.01      28.09
C       0.69       0.83      27.31
C       0.45      33.76      27.99
C       0.82       0.89      25.88
C      34.06       0.22      25.02
C       0.02       0.34      23.61
C       1.05       1.12      23.02
C       1.98       1.75      23.89
C       1.86       1.63      25.29
C      14.05       1.28      35.35
C      34.11       1.19      48.60
C      21.17       1.31      34.92
C       1.14       1.36      21.65
C       0.71       0.35      53.54
C       1.54      33.62      52.81
C       1.55      33.65      51.40
C       0.70       0.42      50.74
C       0.68       0.71      19.40
C       1.41       1.68      18.67
C       1.34       1.73      17.26
C       0.56       0.74      16.60
C       0.31      18.93       0.99
C      33.23      18.24       0.96
C      33.19      16.82       0.95
C       0.29      16.13       0.95
C      16.21       0.31      35.14
C      16.90      33.23      35.12
C      18.32      33.19      35.11
C      19.02       0.29      35.11
C       8.68       4.95       1.50
C       8.69       3.97       2.48
C       8.69       4.61       3.73
C       8.68       6.20       2.12
C       8.69       7.45       1.43
C       8.70       8.72       2.07
C       8.72      10.32       3.64
C       8.75      10.95       2.39
C       8.74       9.96       1.43
C       8.72      10.98       4.90
C       8.70      10.31       6.16
C       8.69       8.72       7.77
C       8.69       9.97       8.39
C       8.70      10.94       7.41
C       8.69       7.47       8.46
C       8.70       6.19       7.82
C       8.70       4.59       6.25
C       8.72       3.97       7.50
C       8.72       4.96       8.47
C       8.70       3.93       4.99
C       8.75       2.50       4.99
C       9.98       1.83       5.14
C      10.03       0.42       5.18
C       8.85      33.78       5.06
C       7.63       0.32       4.89
C       7.57       1.73       4.86
C       8.91      32.35       5.12
C       8.14      31.53       4.25
C       8.23      30.12       4.28
C       9.11      29.47       5.19
C       9.87      30.28       6.07
C       9.77      31.68       6.04
C       8.73       7.49       9.88
C       9.95       7.66      10.57
C       9.99       7.69      11.97
C       8.81       7.56      12.75
C       7.59       7.38      12.05
C       7.54       7.35      10.64
C       8.86       7.59      14.18
C       9.70       8.51      14.86
C       9.83       8.49      16.26
C       9.11       7.56      17.04
C       8.24       6.67      16.38
C       8.11       6.68      14.98
C       8.77      12.41       4.90
C       7.59      13.18       4.96
C       7.65      14.59       4.94
C       8.88      15.28       4.85
C      10.06      14.49       4.80
C      10.01      13.08       4.83
C       8.95      16.71       4.81
C       9.86      17.38       3.95
C       9.96      18.79       3.94
C       9.14      19.59       4.76
C       8.21      18.93       5.60
C       8.12      17.52       5.62
C       8.74       7.43       0.01
C       7.57       7.61      67.53
C       9.96       7.22      67.64
C      10.01       7.17      66.23
C       8.85       7.33      65.44
C       7.62       7.56      66.12
C       8.91       7.21      64.01
C       8.25       8.13      63.15
C       8.38       8.04      61.75
C       9.16       7.02      61.16
C       9.79       6.09      62.01
C       9.66       6.18      63.41
C       9.28      28.09       5.19
C       9.35       7.49      18.40
C       9.31      20.97       4.76
C       9.41       6.95      59.79
C      11.05       7.68      35.67
C      12.02       7.70      36.65
C      11.39       7.69      37.90
C       9.80       7.68      36.28
C       8.55       7.69      35.60
C       7.28       7.71      36.23
C       5.67       7.73      37.80
C       5.05       7.76      36.55
C       6.04       7.75      35.58
C       5.02       7.73      39.06
C       5.69       7.72      40.32
C       7.28       7.73      41.93
C       6.02       7.72      42.55
C       5.05       7.72      41.56
C       8.52       7.74      42.62
C       9.80       7.74      41.98
C      11.40       7.73      40.41
C      12.02       7.76      41.66
C      11.04       7.77      42.63
C      12.06       7.72      39.15
C      13.49       7.76      39.15
C      14.17       8.99      39.31
C      15.58       9.04      39.34
C      16.36       7.86      39.23
C      15.67       6.63      39.06
C      14.26       6.58      39.03
C      17.80       7.92      39.28
C      18.61       7.14      38.42
C      20.02       7.24      38.45
C      20.67       8.11      39.35
C      19.87       8.87      40.23
C      18.46       8.77      40.20
C       8.50       7.79      44.04
C       8.28       9.01      44.71
C       8.22       9.06      46.12
C       8.38       7.89      46.90
C       8.61       6.67      46.22
C       8.67       6.62      44.82
C       8.28       7.94      48.33
C       7.26       8.70      48.97
C       7.17       8.77      50.37
C       8.08       8.08      51.21
C       9.09       7.32      50.57
C       9.19       7.25      49.17
C       3.59       7.78      39.06
C       2.82       6.60      39.12
C       1.41       6.65      39.09
C       0.72       7.89      39.00
C       1.50       9.07      38.96
C       2.91       9.02      38.98
C      33.43       7.95      38.96
C      32.76       8.87      38.11
C      31.35       8.96      38.09
C      30.55       8.14      38.92
C      31.21       7.21      39.76
C      32.62       7.12      39.78
C       8.57       7.74      34.17
C       8.40       6.56      33.40
C       8.78       8.96      33.50
C       8.84       9.01      32.09
C       8.69       7.83      31.31
C       8.45       6.61      31.99
C       8.82       7.89      29.88
C       7.91       7.22      29.02
C       8.02       7.34      27.61
C       9.05       8.12      27.02
C       9.98       8.75      27.89
C       9.86       8.63      29.29
C      22.05       8.28      39.35
C       7.96       8.19      52.60
C      29.17       8.31      38.92
C       9.14       8.36      25.65
C       8.71       7.35      57.54
C       9.54       6.47      56.81
C       9.55       6.50      55.40
C       8.70       7.42      54.74
C       8.68       7.71      23.40
C       9.41       8.68      22.67
C       9.34       8.73      21.26
C       8.56       7.74      20.60
C       8.31      25.93       4.99
C       7.08      25.24       4.96
C       7.05      23.82       4.95
C       8.29      23.13       4.95
C      24.21       7.31      39.14
C      24.90       6.08      39.12
C      26.32       6.05      39.11
C      27.02       7.29      39.11
C      16.68      11.95       5.50
C      16.69      10.97       6.48
C      16.69      11.61       7.73
C      16.68      13.20       6.12
C      16.69      14.45       5.43
C      16.70      15.72       6.07
C      16.72      17.32       7.64
C      16.75      17.95       6.39
C      16.74      16.96       5.43
C      16.72      17.98       8.90
C      16.70      17.31      10.16
C      16.69      15.72      11.77
C      16.69      16.97      12.39
C      16.70      17.94      11.41
C      16.69      14.47      12.46
C      16.70      13.19      11.82
C      16.70      11.59      10.25
C      16.72      10.97      11.50
C      16.72      11.96      12.47
C      16.70      10.93       8.99
C      16.75       9.50       8.99
C      17.98       8.83       9.14
C      18.03       7.42       9.18
C      16.85       6.63       9.06
C      15.63       7.32       8.89
C      15.57       8.73       8.86
C      16.91       5.20       9.12
C      16.14       4.38       8.25
C      16.23       2.98       8.28
C      17.11       2.32       9.19
C      17.87       3.13      10.07
C      17.77       4.54      10.04
C      16.73      14.49      13.88
C      17.95      14.66      14.57
C      17.99      14.69      15.97
C      16.81      14.56      16.75
C      15.59      14.38      16.05
C      15.54      14.35      14.64
C      16.86      14.59      18.18
C      17.70      15.51      18.86
C      17.83      15.49      20.26
C      17.11      14.56      21.04
C      16.24      13.67      20.38
C      16.11      13.68      18.98
C      16.77      19.41       8.90
C      15.59      20.18       8.96
C      15.65      21.59       8.94
C      16.88      22.28       8.85
C      18.06      21.49       8.80
C      18.01      20.08       8.83
C      16.95      23.71       8.81
C      17.86      24.38       7.95
C      17.96      25.79       7.94
C      17.14      26.59       8.76
C      16.21      25.93       9.60
C      16.12      24.52       9.62
C      16.74      14.43       4.01
C      15.57      14.61       3.23
C      17.96      14.22       3.34
C      18.01      14.17       1.93
C      16.85      14.33       1.15
C      15.62      14.56       1.82
C      16.91      14.21      68.01
C      16.25      15.13      67.15
C      16.38      15.04      65.75
C      17.16      14.02      65.16
C      17.79      13.09      66.01
C      17.66      13.18      67.41
C      17.28       0.94       9.19
C      17.35      14.49      22.40
C      17.31      27.97       8.76
C      17.41      13.95      63.79
C      19.05      14.68      39.67
C      20.02      14.70      40.65
C      19.39      14.69      41.89
C      17.80      14.68      40.28
C      16.55      14.69      39.60
C      15.28      14.71      40.23
C      13.67      14.73      41.80
C      13.05      14.76      40.55
C      14.04      14.75      39.58
C      13.02      14.73      43.06
C      13.69      14.72      44.32
C      15.28      14.73      45.93
C      14.02      14.72      46.55
C      13.05      14.72      45.56
C      16.52      14.74      46.62
C      17.80      14.74      45.98
C      19.40      14.73      44.41
C      20.02      14.76      45.66
C      19.04      14.77      46.63
C      20.06      14.72      43.15
C      21.49      14.76      43.15
C      22.17      15.99      43.31
C      23.58      16.04      43.34
C      24.36      14.86      43.23
C      23.67      13.63      43.06
C      22.26      13.58      43.03
C      25.80      14.92      43.28
C      26.61      14.14      42.42
C      28.02      14.24      42.45
C      28.67      15.11      43.35
C      27.87      15.87      44.23
C      26.46      15.77      44.20
C      16.50      14.79      48.04
C      16.28      16.01      48.71
C      16.22      16.06      50.12
C      16.38      14.89      50.90
C      16.61      13.67      50.22
C      16.67      13.62      48.82
C      16.28      14.94      52.33
C      15.26      15.70      52.97
C      15.17      15.77      54.37
C      16.08      15.08      55.21
C      17.09      14.32      54.57
C      17.19      14.25      53.17
C      11.59      14.78      43.06
C      10.82      13.60      43.12
C       9.41      13.65      43.09
C       8.72      14.89      43.00
C       9.50      16.07      42.96
C      10.91      16.02      42.98
C       7.28      14.95      42.96
C       6.61      15.87      42.11
C       5.21      15.96      42.09
C       4.41      15.14      42.92
C       5.06      14.21      43.76
C       6.47      14.12      43.78
C      16.57      14.74      38.17
C      16.40      13.56      37.40
C      16.78      15.96      37.50
C      16.84      16.01      36.09
C      16.69      14.83      35.31
C      16.45      13.61      35.99
C      16.82      14.89      33.88
C      15.92      14.22      33.02
C      16.02      14.34      31.61
C      17.05      15.12      31.02
C      17.98      15.75      31.89
C      17.86      15.63      33.29
C      30.05      15.28      43.35
C      15.96      15.19      56.60
C       3.02      15.31      42.92
C      17.14      15.36      29.65
C      16.71      14.35      61.54
C      17.54      13.47      60.81
C      17.55      13.50      59.40
C      16.70      14.42      58.74
C      16.68      14.71      27.40
C      17.41      15.68      26.67
C      17.34      15.73      25.26
C      16.56      14.74      24.60
C      16.31      32.93       8.99
C      15.08      32.24       8.96
C      15.05      30.82       8.95
C      16.29      30.13       8.95
C      32.21      14.31      43.14
C      32.90      13.08      43.12
C       0.17      13.05      43.11
C       0.87      14.29      43.11
N       0.68      33.09      67.75
N       0.69       1.99      67.69
N       0.69       1.98       2.44
N       0.69      33.07       2.50
N       2.06       0.68      33.62
N      33.15       0.70      33.55
N      33.16       0.73      36.60
N       2.07       0.71      36.66
N      34.06       1.22      51.52
N      34.07       1.19      52.83
N       2.37      32.80      50.72
N       0.61       0.39      54.88
N       0.66       0.48      49.41
N      34.03      34.00      17.36
N      34.09      33.98      18.67
N       2.00       2.72      16.60
N       0.65       0.60      20.73
N       0.42       0.67      15.27
N       1.43      16.87       0.97
N       1.44      18.18       0.99
N      32.00      16.18       0.94
N       0.31      20.26       1.00
N       0.33      14.79       0.94
N      18.27       1.43      35.13
N      16.97       1.44      35.14
N      18.97      32.00      35.09
N      14.88       0.32      35.15
N      20.35       0.33      35.09
N       8.68       5.94       3.45
N       8.69       8.99       3.39
N       8.69       8.98       6.44
N       8.69       5.92       6.50
N      10.06       7.68      37.62
N       7.00       7.70      37.55
N       7.02       7.73      40.60
N      10.07       7.71      40.66
N       7.92       8.22      55.52
N       7.92       8.19      56.83
N      10.37       5.65      54.72
N       8.61       7.39      58.88
N       8.66       7.48      53.41
N       7.88       6.85      21.36
N       7.94       6.84      22.67
N      10.00       9.72      20.60
N       8.65       7.60      24.73
N       8.42       7.67      19.27
N       9.43      23.87       4.97
N       9.44      25.18       4.99
N       5.85      23.18       4.94
N       8.31      27.26       5.00
N       8.33      21.79       4.94
N      26.27       8.43      39.13
N      24.97       8.44      39.14
N      26.97       4.85      39.09
N      22.88       7.32      39.15
N      28.35       7.33      39.09
N      16.68      12.94       7.45
N      16.69      15.99       7.39
N      16.69      15.98      10.44
N      16.69      12.92      10.50
N      18.06      14.68      41.62
N      15.00      14.70      41.55
N      15.02      14.73      44.60
N      18.07      14.71      44.66
N      15.92      15.22      59.52
N      15.92      15.19      60.83
N      18.37      12.65      58.72
N      16.61      14.39      62.88
N      16.66      14.48      57.41
N      15.88      13.85      25.36
N      15.94      13.84      26.67
N      18.00      16.72      24.60
N      16.65      14.60      28.73
N      16.42      14.67      23.27
N      17.43      30.87       8.97
N      17.44      32.18       8.99
N      13.85      30.18       8.94
N      16.31       0.11       9.00
N      16.33      28.79       8.94
N       0.13      15.43      43.13
N      32.97      15.44      43.14
N       0.82      11.85      43.09
N      30.88      14.32      43.15
N       2.20      14.33      43.09
