26

K       0.58       5.19       7.14
K      -1.76       3.23       3.89
K       3.45       1.83       4.73
K       5.79       3.79       7.98
H       0.21       2.41       6.53
H      -1.38       2.47       6.63
H       3.82       4.60       5.34
H       5.41       4.55       5.25
S       2.17       2.25       8.39
S      -3.34       0.75       5.90
S       1.85       4.76       3.48
S      -3.04       6.26       5.98
O       3.61       2.52       8.64
O       1.90       2.02       6.93
O       1.25       3.23       8.99
O       5.64       0.65       5.54
O       7.34       1.93       6.79
O      -2.42       0.68       4.75
O       0.42       4.50       3.23
O       2.13       4.99       4.94
O       2.78       3.78       2.89
O      -1.61       6.36       6.33
O      -3.32       5.08       5.09
O      -3.97       6.33       7.12
O      -0.59       2.94       6.28
O       4.62       4.07       5.59
