9

O      -3.48       5.11       8.47
Ni      -3.52       5.27       6.58
O      -3.53       5.52       4.71
O      -3.54       3.38       6.48
C      -4.84       7.30       6.70
C      -2.20       4.96       8.61
C      -4.47       4.99       3.99
C      -2.62       2.79       5.78
O      -3.55       7.15       6.78
