9

Ni      -0.00       1.39       1.69
O       0.04       3.27       1.90
C       0.92       1.12      -0.90
O      -0.02       1.19       3.58
C      -0.91      -1.09       0.91
C       1.33       3.41       1.82
C      -1.30       1.07       3.71
O      -0.01       1.68      -0.18
O       0.02      -0.51       1.60
