178

La       2.55       7.74       7.74
La       7.64       7.74       7.74
H       8.02       6.41      11.45
H       8.02       4.32      12.78
H       8.02       9.07       4.02
H       8.02      11.16       2.69
H       8.02       4.02       6.41
H       8.02       2.69       4.32
H       8.02      11.45       9.06
H       8.02      12.79      11.15
H       7.25       9.06      11.45
H       7.25      11.15      12.79
H       7.25       6.41       4.02
H       7.25       4.32       2.69
H       7.25      11.45       6.41
H       7.25      12.78       4.32
H       7.25       4.02       9.07
H       7.25       2.69      11.16
H       2.16       9.06       4.02
H       2.16      11.15       2.69
H       2.16       6.41      11.45
H       2.16       4.32      12.79
H       2.16      11.45       9.07
H       2.16      12.78      11.16
H       2.16       4.02       6.41
H       2.16       2.69       4.32
H       2.93       6.41       4.02
H       2.93       4.32       2.69
H       2.93       9.07      11.45
H       2.93      11.16      12.78
H       2.93       4.02       9.06
H       2.93       2.69      11.15
H       2.93      11.45       6.41
H       2.93      12.79       4.32
H      10.18       5.30      15.32
H      10.14       4.71       2.48
H      10.18      10.17       0.16
H      10.14      10.77      13.00
H       0.00       0.16       5.30
H       0.04      13.00       4.71
H       0.00      15.32      10.17
H       0.04       2.48      10.77
H       5.09      10.17      15.32
H       5.05      10.77       2.48
H       5.09       5.30       0.16
H       5.05       4.71      13.00
H       5.09      15.32       5.30
H       5.13       2.48       4.71
H       5.09       0.16      10.17
H       5.13      13.00      10.77
C       8.96       5.96      11.76
C       8.97       4.78      12.49
C       8.96       9.51       3.72
C       8.97      10.70       2.98
C       8.96       3.72       5.97
C       8.97       2.98       4.78
C       8.96      11.76       9.51
C       8.97      12.50      10.69
C       6.31       9.51      11.76
C       6.30      10.69      12.50
C       6.31       5.97       3.72
C       6.30       4.78       2.98
C       6.31      11.76       5.96
C       6.30      12.49       4.78
C       6.31       3.72       9.51
C       6.30       2.98      10.70
C       1.22       9.51       3.72
C       1.21      10.69       2.98
C       1.22       5.97      11.76
C       1.21       4.78      12.50
C       1.22      11.76       9.51
C       1.21      12.49      10.70
C       1.22       3.72       5.96
C       1.21       2.98       4.78
C       3.87       5.96       3.72
C       3.88       4.78       2.98
C       3.87       9.51      11.76
C       3.88      10.70      12.49
C       3.87       3.72       9.51
C       3.88       2.98      10.69
C       3.87      11.76       5.97
C       3.88      12.50       4.78
C      10.18       6.56      11.40
C       0.00       4.18      12.87
C       0.01       2.91      13.65
C       0.04       3.03      15.08
C       0.01       4.32       0.31
C      10.16       4.03       1.64
C       0.02       2.55       1.71
C      10.18       8.92       4.07
C       0.00      11.29       2.61
C       0.01      12.56       1.83
C       0.04      12.45       0.40
C       0.01      11.15      15.16
C      10.16      11.45      13.84
C       0.02      12.92      13.76
C       0.00       4.07       6.56
C      10.18       2.61       4.18
C      10.17       1.83       2.91
C      10.14       0.40       3.03
C      10.17      15.16       4.32
C       0.02      13.84       4.03
C      10.16      13.76       2.55
C       0.00      11.40       8.92
C      10.18      12.87      11.29
C      10.17      13.65      12.56
C      10.14      15.08      12.45
C      10.17       0.31      11.15
C       0.02       1.64      11.45
C      10.16       1.71      12.92
C       5.09       8.92      11.40
C       5.09      11.29      12.87
C       5.10      12.56      13.65
C       5.13      12.45      15.08
C       5.10      11.15       0.31
C       5.07      11.45       1.64
C       5.11      12.92       1.71
C       5.09       6.56       4.07
C       5.09       4.18       2.61
C       5.10       2.91       1.83
C       5.13       3.03       0.40
C       5.10       4.32      15.16
C       5.07       4.03      13.84
C       5.11       2.55      13.76
C       5.09      11.40       6.56
C       5.09      12.87       4.18
C       5.08      13.65       2.91
C       5.05      15.08       3.03
C       5.08       0.31       4.32
C       5.11       1.64       4.03
C       5.07       1.71       2.55
C       5.09       4.07       8.92
C       5.09       2.61      11.29
C       5.08       1.83      12.56
C       5.05       0.40      12.45
C       5.08      15.16      11.15
C       5.11      13.84      11.45
C       5.07      13.76      12.92
S      10.18       8.17      10.63
S      10.18       7.31       4.85
S       0.00       4.85       8.17
S       0.00      10.63       7.31
S       5.09       7.31      10.63
S       5.09       8.17       4.85
S       5.09      10.63       8.17
S       5.09       4.85       7.31
N       0.08       1.99       0.46
N       0.08      13.49      15.02
N      10.10      15.02       1.99
N      10.10       0.46      13.49
N       5.17      13.49       0.46
N       5.17       1.99      15.02
N       5.01       0.46       1.99
N       5.01      15.02      13.49
O       1.23       8.24       9.79
O       1.23       7.23       5.68
O       1.23       5.69       8.24
O       1.23       9.79       7.23
O       3.86       7.23       9.79
O       3.86       8.24       5.69
O       3.86       9.79       8.24
O       3.86       5.68       7.23
O       8.95       7.23       5.69
O       8.95       8.24       9.79
O       8.95       9.79       7.23
O       8.95       5.68       8.24
O       6.32       8.24       5.68
O       6.32       7.23       9.79
O       6.32       5.69       7.23
O       6.32       9.79       8.24
O       0.00       9.12      11.73
O       0.00       6.35       3.74
O       0.00       3.74       9.12
O       0.00      11.73       6.35
O       5.09       6.35      11.73
O       5.09       9.12       3.74
O       5.09      11.73       9.12
O       5.09       3.74       6.35
