840

C       0.02      40.95      70.82
C       0.03     -40.85      70.88
C       0.02       1.43       0.05
C       0.03       0.67       1.24
C       0.02      82.48       1.21
C       0.03      40.22      72.03
C       9.93      -7.59      15.86
C       0.03      -6.96      14.61
C       0.14      -7.71      13.42
C       0.14      74.10      13.50
C       0.10      73.44      14.75
C       9.98      -9.00      15.92
C       9.93     -24.06      70.73
C       0.03     -25.46      70.80
C       0.14     -26.12      72.06
C       0.14      16.27       1.17
C       0.10      17.68       1.11
C       9.98     -23.30      71.92
C       9.93      31.69      57.56
C       0.04      32.46      58.74
C       0.14      33.87      58.68
C       0.14      34.50      57.42
C       0.10      33.74      56.23
C       9.98      32.34      56.31
C       9.92      58.03      19.52
C       9.87      59.36      19.07
C       9.88      59.66      17.69
C       9.96      58.61      16.76
C      10.00      57.26      17.19
C       9.96      56.99      18.57
C       9.92      29.52      12.07
C       9.87      28.46      11.14
C       9.88      27.11      11.57
C       9.96      26.83      12.95
C       0.00      27.88      13.90
C       9.96      29.21      13.45
C       9.92      37.32      40.49
C       9.87      37.04      41.87
C       9.88      38.09      42.82
C       9.96      39.43      42.38
C       0.00      39.72      41.00
C       9.96      38.67      40.06
C       0.09      16.40      52.56
C       0.15      17.74      52.99
C       0.15      18.06      54.37
C       0.08      17.02      55.32
C       0.03      15.67      54.90
C       0.06      15.37      53.52
C       0.09     -12.09      59.99
C       0.15     -13.13      60.94
C       0.15     -14.48      60.52
C       0.08     -14.78      59.14
C       0.02     -13.75      58.18
C       0.06     -12.41      58.62
C       0.09      -4.28      31.60
C       0.15      -4.57      30.23
C       0.15      -3.54      29.26
C       0.08      -2.19      29.69
C       0.03      -1.88      31.07
C       0.06      -2.93      32.01
C       0.04      54.78      35.26
C       0.11      53.46      35.75
C       0.11      52.36      34.87
C       0.11      52.59      33.47
C       0.04      53.90      32.96
C       0.03      54.99      33.86
C       0.04      44.77       7.02
C       0.11      45.85       7.91
C       0.11      45.64       9.31
C       0.11      44.32       9.81
C       0.04      43.22       8.93
C       0.03      43.45       7.53
C       0.04      25.32      29.81
C       0.10      25.55      28.42
C       0.11      26.87      27.91
C       0.11      27.96      28.80
C       0.04      27.75      30.20
C       0.03      26.42      30.69
C       0.10      13.18      36.87
C       0.06      11.87      36.34
C       0.01      10.75      37.20
C       9.96      10.94      38.60
C       0.01      12.24      39.14
C       0.05      13.35      38.27
C       0.10       3.12      65.04
C       0.06       4.22      64.18
C       0.01       4.04      62.77
C       9.96       2.74      62.24
C       0.01       1.61      63.09
C       0.05       1.82      64.49
C       0.10     -16.26      42.24
C       0.06     -16.06      43.64
C       0.01     -14.75      44.18
C       9.96     -13.64      43.31
C       0.01     -13.82      41.91
C       0.05     -15.13      41.39
C       0.46      -5.61      10.49
C       1.54      -5.07       9.74
C       0.08      78.63       7.89
C       8.97      78.10       8.59
C       9.18      -5.62       9.89
C       9.91      79.16       6.59
C       0.85      80.22       4.67
C       9.61      80.24       4.00
C       8.49      79.69       4.68
C       8.63      79.15       5.98
C       7.53      78.61       6.69
C       7.70      78.10       7.98
C       2.95      -4.99      10.19
C       0.59      -6.01      11.81
C       9.47      80.74       2.72
C       0.46     -29.70      71.70
C       1.54     -30.62      71.61
C       0.08       9.14       0.05
C       8.97      10.02       0.16
C       9.18     -30.21      72.01
C       9.91       7.75       0.24
C       0.85       5.56       0.28
C       9.61       4.98       0.60
C       8.49       5.84       0.74
C       8.63       7.23       0.55
C       7.53       8.11       0.66
C       7.70       9.49       0.46
C       2.95     -30.28      71.32
C       0.60     -28.36      71.39
C       9.47       3.61       0.80
C       0.46      35.35      61.96
C       1.54      35.74      62.80
C       0.08      37.10      64.14
C       8.97      36.75      63.33
C       9.18      35.88      62.25
C       9.91      37.95      65.25
C       0.85      39.09      67.13
C       9.61      39.66      67.48
C       8.49      39.34      66.66
C       8.63      38.49      65.55
C       7.53      38.14      64.73
C       7.70      37.28      63.64
C       2.95      35.31      62.65
C       0.60      34.41      60.95
C       9.47      40.51      68.56
C       9.51      63.20      17.10
C       8.49      64.05      16.60
C       0.05      65.86      16.35
C       1.11      65.05      16.82
C       0.82      63.72      17.19
C       0.28      67.22      16.04
C       9.42      69.36      15.40
C       0.68      69.98      15.58
C       1.76      69.16      15.98
C       1.58      67.78      16.21
C       2.64      66.95      16.66
C       2.40      65.60      16.96
C       7.07      63.67      16.43
C       9.26      61.94      17.62
C       0.84      71.36      15.51
C       9.51      24.84       8.81
C       8.48      23.98       8.31
C       0.05      22.86       6.87
C       1.11      23.68       7.34
C       0.82      24.66       8.31
C       0.28      21.91       5.84
C       9.42      20.29       4.32
C       0.68      20.13       3.69
C       1.76      20.89       4.20
C       1.58      21.78       5.28
C       2.63      22.58       5.77
C       2.40      23.52       6.79
C       7.06      24.01       8.73
C       9.25      25.91       9.64
C       0.84      19.39       2.53
C       9.51      36.83      46.18
C       8.48      36.83      47.16
C       0.05      36.14      48.86
C       1.11      36.14      47.92
C       0.82      36.49      46.58
C       0.28      35.73      50.19
C       9.42      35.22      52.36
C       0.68      34.75      52.81
C       1.76      34.82      51.90
C       1.58      35.30      50.58
C       2.63      35.33      49.65
C       2.40      35.75      48.32
C       7.06      37.18      46.93
C       9.25      37.01      44.83
C       0.84      34.12      54.03
C       0.49      21.60      54.92
C       1.50      22.45      55.46
C       9.91      24.23      55.73
C       8.87      23.42      55.21
C       9.18      22.11      54.80
C       9.65      25.57      56.11
C       0.44      27.66      56.94
C       9.17      28.27      56.79
C       8.12      27.45      56.31
C       8.34      26.10      55.96
C       7.31      25.29      55.45
C       7.57      23.96      55.07
C       2.92      22.08      55.66
C       0.76      20.34      54.40
C       8.93      29.61      57.07
C       0.50     -16.73      63.31
C       1.50     -17.62      63.78
C       9.91     -18.75      65.19
C       8.87     -17.89      64.75
C       9.18     -16.88      63.81
C       9.65     -19.74      66.15
C       0.44     -21.50      67.56
C       9.17     -21.68      68.15
C       8.12     -20.85      67.69
C       8.34     -19.88      66.69
C       7.31     -19.03      66.24
C       7.57     -18.04      65.27
C       2.92     -17.61      63.36
C       0.77     -15.66      62.48
C       8.94     -22.59      69.18
C       0.49      -4.83      25.92
C       1.50      -4.79      24.92
C       9.91      -5.44      23.24
C       8.87      -5.49      24.20
C       9.18      -5.18      25.54
C       9.65      -5.79      21.89
C       0.44      -6.13      19.67
C       9.17      -6.55      19.21
C       8.12      -6.56      20.16
C       8.34      -6.18      21.50
C       7.31      -6.21      22.46
C       7.57      -5.87      23.80
C       2.92      -4.43      25.14
C       0.76      -4.65      27.27
C       8.94      -7.00      17.92
C       0.49      54.22      15.34
C       1.55      53.64      14.60
C       0.05      52.02      13.65
C       8.96      52.57      14.36
C       9.20      53.67      15.20
C       9.86      50.90      12.81
C       0.78      49.28      11.31
C       9.51      48.68      11.11
C       8.41      49.23      11.80
C       8.57      50.33      12.66
C       7.48      50.89      13.37
C       7.68      52.00      14.21
C       2.97      54.08      14.61
C       0.70      55.21      16.28
C       9.34      47.65      10.21
C       0.49      27.79      17.46
C       1.56      27.45      18.34
C       0.05      27.44      20.22
C       8.96      27.77      19.38
C       9.20      27.95      18.00
C       9.86      27.27      21.60
C       0.78      26.78      23.75
C       9.51      26.91      24.37
C       8.41      27.23      23.55
C       8.57      27.43      22.16
C       7.48      27.76      21.33
C       7.68      27.94      19.94
C       2.97      27.24      17.94
C       0.70      28.12      16.13
C       9.33      26.65      25.72
C       0.49      42.85      39.29
C       1.56      43.78      39.15
C       0.06      45.41      38.22
C       8.96      44.52      38.35
C       9.20      43.24      38.88
C       9.86      46.70      37.67
C       0.78      48.81      37.02
C       9.51      49.28      36.60
C       8.41      48.41      36.73
C       8.57      47.11      37.26
C       7.48      46.22      37.39
C       7.68      44.93      37.92
C       2.97      43.55      39.53
C       0.70      41.54      39.67
C       9.34      50.57      36.15
C       9.55      12.65      56.79
C       8.49      12.05      57.53
C       0.01      10.45      58.49
C       1.10      11.01      57.77
C       0.85      12.11      56.92
C       0.21       9.34      59.33
C       9.32       7.71      60.83
C       0.58       7.12      61.02
C       1.69       7.68      60.33
C       1.51       8.78      59.47
C       2.60       9.35      58.76
C       2.39      10.46      57.92
C       7.08      12.49      57.52
C       9.33      13.63      55.84
C       0.77       6.08      61.91
C       9.55     -13.87      54.63
C       8.49     -14.22      53.74
C       0.01     -14.24      51.87
C       1.10     -13.91      52.72
C       0.85     -13.72      54.09
C       0.21     -14.41      50.49
C       9.32     -14.90      48.33
C       0.58     -14.77      47.72
C       1.68     -14.45      48.55
C       1.51     -14.26      49.94
C       2.59     -13.93      50.78
C       2.39     -13.75      52.16
C       7.07     -14.42      54.12
C       9.33     -13.54      55.95
C       0.77     -15.02      46.38
C       9.55       1.26      32.74
C       8.49       2.20      32.89
C       0.01       3.83      33.80
C       1.10       2.93      33.67
C       0.85       1.65      33.14
C       0.21       5.12      34.34
C       9.32       7.23      35.00
C       0.58       7.69      35.41
C       1.69       6.82      35.27
C       1.51       5.52      34.75
C       2.59       4.62      34.61
C       2.39       3.34      34.08
C       7.08       1.97      32.52
C       9.33      -0.05      32.37
C       0.77       8.98      35.87
C       9.57      55.08      29.60
C       8.51      55.08      28.65
C       0.01      55.75      26.90
C       1.11      55.76      27.79
C       0.87      55.42      29.14
C       0.20      56.11      25.54
C       9.29      56.45      23.37
C       0.55      56.80      22.84
C       1.66      56.79      23.71
C       1.50      56.46      25.08
C       2.59      56.45      25.98
C       2.39      56.11      27.33
C       7.10      54.74      28.94
C       9.36      54.91      30.95
C       0.72      57.04      21.49
C       9.58      39.71       9.59
C       8.51      38.90      10.06
C       0.01      37.04      10.36
C       1.11      37.82       9.90
C       0.87      39.15       9.52
C       0.20      35.69      10.73
C       9.29      33.63      11.52
C       0.55      33.00      11.48
C       1.66      33.76      11.05
C       1.50      35.11      10.66
C       2.59      35.89      10.21
C       2.39      37.23       9.83
C       7.10      39.32      10.21
C       9.37      40.97       9.06
C       0.72      31.71      11.94
C       9.58      30.07      32.90
C       8.51      30.89      33.37
C       0.01      32.08      34.83
C       1.11      31.29      34.39
C       0.87      30.29      33.42
C       0.20      33.07      35.81
C       9.29      34.78      37.20
C       0.55      35.07      37.77
C       1.66      34.32      37.32
C       1.50      33.30      36.35
C       2.59      32.52      35.90
C       2.39      31.52      34.93
C       7.10      30.81      32.93
C       9.37      28.98      32.08
C       0.72      36.11      38.65
C       0.44      13.35      42.53
C       1.50      13.34      43.49
C       9.99      14.04      45.23
C       8.90      14.05      44.32
C       9.15      13.71      42.97
C       9.79      14.41      46.57
C       0.70      14.76      48.75
C       9.44      15.14      49.27
C       8.34      15.13      48.39
C       8.50      14.78      47.03
C       7.42      14.78      46.12
C       7.62      14.43      44.77
C       2.91      12.98      43.22
C       0.67      13.19      41.18
C       9.27      15.41      50.61
C       0.44      -1.88      62.36
C       1.49      -2.70      61.87
C       9.99      -4.55      61.61
C       8.90      -3.77      62.07
C       9.15      -2.44      62.45
C       9.79      -5.90      61.26
C       0.70      -7.97      60.48
C       9.44      -8.60      60.54
C       8.34      -7.84      60.98
C       8.50      -6.48      61.35
C       7.42      -5.70      61.81
C       7.62      -4.36      62.17
C       2.91      -2.29      61.69
C       0.67      -0.63      62.90
C       9.27      -9.90      60.11
C       0.44     -11.43      39.26
C       1.49     -10.60      38.79
C       9.99      -9.45      37.32
C       8.90     -10.24      37.76
C       9.14     -11.23      38.73
C       9.79      -8.46      36.32
C       0.70      -6.76      34.93
C       9.44      -6.50      34.34
C       8.34      -7.26      34.79
C       8.50      -8.26      35.77
C       7.42      -9.04      36.22
C       7.62     -10.03      37.21
C       2.91     -10.66      39.24
C       0.67     -12.53      40.07
C       9.27      -5.47      33.44
C       0.51     -19.29      40.35
C       1.58     -20.10      39.87
C       0.03     -21.82      39.20
C       8.94     -21.07      39.69
C       9.19     -19.81      40.26
C       9.82      60.17      38.54
C       0.70      58.34      37.30
C       9.42      57.81      37.07
C       8.31      58.50      37.62
C       8.50      59.68      38.36
C       7.41      60.42      38.89
C       7.63     -21.58      39.55
C       3.01     -19.74      39.89
C       0.69     -17.98      40.75
C       9.22      56.74      36.21
C       0.50       3.00      68.62
C       1.57       2.98      69.56
C       0.03       3.26      71.38
C       8.93       3.31      70.49
C       9.19       3.18      69.11
C       9.82      44.92       0.70
C       0.70      44.76       2.91
C       9.41      44.82       3.49
C       8.31      44.96       2.62
C       8.49      45.01       1.22
C       7.41      45.09       0.32
C       7.62       3.44      71.00
C       3.01       2.83      69.24
C       0.69       2.68      67.29
C       9.21      44.62       4.84
C       0.50      16.34      35.18
C       1.57      17.16      34.72
C       0.03      18.59      33.57
C       8.93      17.79      33.97
C       9.19      16.67      34.78
C       9.82      19.78      32.84
C       0.70      21.77      31.86
C       9.41      22.24      31.53
C       8.31      21.41      31.85
C       8.49      20.18      32.50
C       7.41      19.36      32.88
C       7.62      18.17      33.61
C       3.01      16.96      35.02
C       0.69      15.34      36.12
C       9.21      23.51      31.02
H       0.06       1.16       2.15
H       0.06      39.20      71.99
H       0.06     -40.31      70.01
H       0.19      73.54      12.64
H       9.91      -9.47      16.83
H       9.98      -5.93      14.57
H       0.19      15.80       2.08
H       9.91     -22.28      71.87
H       9.98     -26.01      69.94
H       0.19      35.52      57.36
H       9.91      31.79      55.45
H       9.98      31.99      59.65
H       9.98      58.82      15.75
H       9.94      56.02      18.89
H       9.86      60.12      19.76
H       9.98      25.86      13.27
H       9.94      29.98      14.13
H       9.86      28.68      10.14
H       9.98      40.19      43.06
H       9.94      38.87      39.06
H       9.86      36.07      42.18
H       0.06      17.24      56.32
H       0.07      14.40      53.21
H       0.16      18.50      52.29
H       0.06     -15.76      58.84
H       0.07     -11.65      57.93
H       0.16     -12.90      61.93
H       0.06      -1.44      29.00
H       0.07      -2.71      33.01
H       0.16      -5.55      29.92
H       0.14      51.79      32.83
H       0.04      55.95      33.50
H       0.14      53.31      36.76
H       0.14      44.16      10.82
H       0.04      42.66       6.88
H       0.14      46.81       7.54
H       0.14      28.91      28.44
H       0.04      26.26      31.70
H       0.14      24.75      27.78
H       9.91      10.13      39.22
H       0.02      14.30      38.66
H       0.06      11.74      35.33
H       9.91       2.60      61.23
H       0.02       1.01      65.12
H       0.06       5.17      64.57
H       9.91     -12.70      43.70
H       0.02     -15.27      40.38
H       0.06     -16.87      44.26
H       8.37      -5.98      10.42
H       6.60      78.60       6.26
H       6.88      77.72       8.48
H       7.57      79.68       4.23
H       1.69      80.59       4.22
H       3.12      -5.43      11.17
H       3.26      -3.94      10.23
H       3.59      77.71       9.47
H       8.85      80.28       2.09
H       1.03      -5.39      12.45
H       8.38     -29.58      72.06
H       6.60       7.75       0.88
H       6.88      10.11       0.54
H       7.57       5.45       0.96
H       1.70       4.99       0.19
H       3.12     -29.20      71.21
H       3.26     -30.76      70.39
H       3.59      10.98       0.05
H       8.85       3.30       1.52
H       1.04     -28.11      70.54
H       8.38      35.60      61.67
H       6.60      38.51      64.93
H       6.89      37.04      63.06
H       7.57      39.74      66.89
H       1.70      39.30      67.67
H       3.12      34.68      61.77
H       3.26      34.74      63.53
H       3.59      36.19      62.55
H       8.85      41.29      68.47
H       1.04      33.55      61.17
H       1.58      63.14      17.58
H       3.58      67.33      16.79
H       3.18      65.03      17.31
H       2.68      69.57      16.14
H       8.60      69.90      15.14
H       6.87      62.63      16.67
H       6.77      63.84      15.39
H       6.44      64.30      17.07
H       1.54      71.77      16.09
H       8.57      61.85      18.33
H       1.57      25.28       8.62
H       3.57      22.50       5.37
H       3.18      24.10       7.12
H       2.68      20.82       3.76
H       8.59      19.79       3.98
H       6.86      24.74       9.51
H       6.77      23.03       9.11
H       6.44      24.26       7.87
H       1.54      19.67       1.88
H       8.56      26.57       9.36
H       1.57      36.45      45.88
H       3.57      35.03      49.91
H       3.18      35.74      47.66
H       2.68      34.47      52.18
H       8.59      35.17      52.96
H       6.86      37.49      45.90
H       6.77      37.99      47.59
H       6.44      36.31      47.15
H       1.54      33.41      54.11
H       8.56      36.44      44.40
H       8.44      21.53      54.39
H       6.36      25.66      55.33
H       6.81      23.39      54.69
H       7.18      27.85      56.18
H       1.25      28.20      57.27
H       3.13      21.05      55.38
H       3.18      22.20      56.71
H       3.55      22.73      55.06
H       8.14      30.05      56.65
H       1.44      20.26      53.68
H       8.44     -16.24      63.51
H       6.36     -19.11      66.62
H       6.81     -17.43      64.97
H       7.18     -20.95      68.09
H       1.25     -22.06      67.85
H       3.14     -16.85      62.60
H       3.19     -18.58      62.94
H       3.56     -17.42      64.22
H       8.14     -22.44      69.76
H       1.45     -14.99      62.77
H       8.44      -5.24      26.25
H       6.36      -6.50      22.20
H       6.81      -5.91      24.48
H       7.18      -6.87      19.88
H       1.25      -6.11      19.04
H       3.14      -4.16      26.17
H       3.19      -3.59      24.50
H       3.55      -5.28      24.87
H       8.14      -7.56      17.74
H       1.44      -5.23      27.70
H       8.42      54.06      15.75
H       6.54      50.50      13.28
H       6.87      52.39      14.72
H       7.48      48.82      11.67
H       1.61      48.94      10.82
H       3.13      54.97      15.23
H       3.28      54.33      13.60
H       3.60      53.28      14.99
H       8.55      47.68       9.61
H       1.36      55.04      17.00
H       8.42      28.24      17.40
H       6.54      27.88      21.71
H       6.88      28.18      19.36
H       7.47      27.32      23.97
H       1.60      26.52      24.29
H       3.13      27.33      16.87
H       3.28      26.23      18.24
H       3.60      27.97      18.45
H       8.55      26.11      25.99
H       1.37      28.83      15.92
H       8.42      42.57      38.94
H       6.54      46.49      37.09
H       6.88      44.30      38.01
H       7.48      48.72      36.44
H       1.61      49.40      36.97
H       3.13      42.57      39.99
H       3.28      44.31      40.25
H       3.60      43.62      38.64
H       8.55      51.08      36.48
H       1.37      41.00      39.17
H       1.62      12.50      56.37
H       3.54       8.97      58.85
H       3.18      10.85      57.41
H       2.62       7.28      60.46
H       8.49       7.36      61.32
H       6.90      13.37      56.90
H       6.76      12.73      58.54
H       6.45      11.68      57.14
H       1.56       6.12      62.52
H       8.66      13.45      55.13
H       1.62     -13.44      54.70
H       3.54     -13.82      50.40
H       3.18     -13.51      52.76
H       2.62     -14.36      48.14
H       8.49     -15.15      47.78
H       6.90     -14.33      55.19
H       6.76     -15.42      53.82
H       6.45     -13.69      53.61
H       1.56     -15.57      46.10
H       8.66     -12.83      56.15
H       1.62       0.98      33.08
H       3.54       4.89      34.90
H       3.18       2.70      33.99
H       2.62       7.13      35.56
H       8.49       7.83      35.05
H       6.91       1.00      32.06
H       6.76       2.73      31.80
H       6.45       2.05      33.41
H       1.56       9.49      35.53
H       8.66      -0.58      32.88
H       1.65      55.46      29.81
H       3.53      56.70      25.66
H       3.19      56.12      27.96
H       2.59      57.03      23.36
H       8.45      56.41      22.77
H       6.94      54.43      29.97
H       6.78      53.92      28.29
H       6.47      55.61      28.74
H       1.51      56.64      21.03
H       8.68      55.48      31.39
H       1.65      39.71       9.15
H       3.53      35.49      10.16
H       3.20      37.78       9.50
H       2.59      33.34      11.03
H       8.45      33.14      11.85
H       6.94      40.36       9.96
H       6.79      39.16      11.25
H       6.47      38.71       9.56
H       1.51      31.52      12.53
H       8.68      41.07       8.34
H       1.65      29.69      33.13
H       3.53      32.68      36.27
H       3.20      30.97      34.62
H       2.59      34.51      37.70
H       8.45      35.32      37.46
H       6.94      30.07      32.15
H       6.79      31.78      32.55
H       6.47      30.55      33.78
H       1.50      36.71      38.53
H       8.68      28.32      32.35
H       8.38      13.76      42.30
H       6.48      15.05      46.43
H       6.82      14.45      44.13
H       7.41      15.39      48.73
H       1.53      14.72      49.35
H       3.08      12.66      42.19
H       3.21      12.16      43.88
H       3.55      13.84      43.42
H       8.48      15.03      51.07
H       1.38      13.75      40.76
H       8.38      -1.88      62.83
H       6.48      -6.10      61.88
H       6.82      -3.81      62.51
H       7.41      -8.27      61.03
H       1.53      -8.47      60.14
H       3.08      -1.23      61.93
H       3.21      -2.45      60.66
H       3.55      -2.89      62.34
H       8.47     -10.11      59.54
H       1.38      -0.54      63.59
H       8.37     -11.84      39.02
H       6.48      -8.91      35.84
H       6.82     -10.60      37.51
H       7.41      -7.08      34.39
H       1.53      -6.22      34.66
H       3.07     -11.38      40.03
H       3.20      -9.68      39.62
H       3.54     -10.91      38.39
H       8.48      -4.87      33.54
H       1.38     -13.17      39.80
H       8.40     -19.23      40.57
H       6.45      60.09      38.76
H       6.82     -21.05      39.88
H       7.36      58.16      37.45
H       1.54      57.90      36.90
H       3.21     -18.80      40.41
H       3.39     -19.66      38.87
H       3.57     -20.52      40.41
H       8.40      56.72      35.65
H       1.26     -17.39      40.18
H       8.39       3.15      68.46
H       6.45      45.15       0.67
H       6.82       3.47      70.37
H       7.36      44.98       3.00
H       1.54      44.63       3.49
H       3.21       2.80      68.17
H       3.38       1.90      69.68
H       3.57       3.66      69.66
H       8.39      44.13       5.14
H       1.26       1.90      67.06
H       8.40      16.12      35.13
H       6.45      19.63      32.65
H       6.82      17.61      33.90
H       7.36      21.73      31.64
H       1.54      22.33      31.69
H       3.21      16.04      35.58
H       3.38      17.80      35.60
H       3.57      16.90      34.09
H       8.39      24.01      31.30
H       1.26      15.53      36.91
N       0.05      40.27      69.68
N       0.05       2.76       0.03
N       0.05      81.83       2.37
N       9.80      -6.85      16.96
N       0.15      76.06      12.21
N       0.08      72.11      14.80
N       9.80     -23.49      69.54
N       0.15      14.16       0.11
N       0.08      18.39       2.23
N       9.81      30.37      57.66
N       0.15      34.64      59.77
N       0.08      34.36      55.05
N       9.89      57.77      20.82
N       9.93      60.91      17.24
N       9.99      56.29      16.29
N       9.89      30.77      11.65
N       9.93      26.10      10.71
N      10.00      27.59      15.20
N       9.89      36.33      39.61
N       9.93      37.85      44.13
N      10.00      40.99      40.60
N       0.11      16.13      51.26
N       0.10      19.32      54.80
N       0.04      14.70      55.81
N       0.11     -10.83      60.40
N       0.10     -15.49      61.39
N       0.04     -14.05      56.89
N       0.11      -5.26      32.49
N       0.10      -3.79      27.96
N       0.04      -0.61      31.45
N       0.09      55.80      36.09
N       0.16      51.12      35.33
N       0.07      54.09      31.64
N       0.08      44.98       5.71
N       0.16      46.66      10.15
N       0.07      41.98       9.42
N       0.08      24.08      30.27
N       0.16      27.09      26.60
N       0.07      28.79      31.02
N       0.10      14.20      36.02
N       9.96       9.52      36.71
N       9.95      12.41      40.46
N       0.09       3.34      66.35
N       9.96       5.08      61.95
N       9.95       0.39      62.58
N       0.10     -17.50      41.78
N       9.96     -14.56      45.49
N       9.95     -12.76      41.11
N       1.30      -4.59       8.49
N       0.96      79.69       5.91
N       1.30     -31.94      71.82
N       0.96       6.90       0.12
N       1.30      36.58      63.84
N       0.96      38.28      66.05
N       8.81      65.33      16.26
N       9.27      68.03      15.64
N       8.80      23.05       7.38
N       9.27      21.16       5.34
N       8.80      36.49      48.44
N       9.27      35.67      51.09
N       1.16      23.71      55.83
N       0.63      26.37      56.59
N       1.16     -18.57      64.68
N       0.63     -20.56      66.61
N       1.16      -5.10      23.64
N       0.64      -5.78      20.96
N       1.28      52.57      13.80
N       0.90      50.35      12.13
N       1.28      27.29      19.66
N       0.90      26.96      22.42
N       1.28      45.01      38.63
N       0.90      47.56      37.54
N       8.78      11.00      58.33
N       9.18       8.78      60.01
N       8.77     -14.38      52.42
N       9.18     -14.72      49.67
N       8.78       3.43      33.40
N       9.18       5.98      34.48
N       8.78      55.41      27.36
N       9.16      56.12      24.67
N       8.79      37.61      10.42
N       9.16      34.93      11.15
N       8.79      31.84      34.30
N       9.16      33.82      36.26
N       1.21      13.68      44.78
N       0.83      14.41      47.45
N       1.21      -3.98      61.52
N       0.83      -6.67      60.82
N       1.21      -9.66      37.85
N       0.83      -7.71      35.88
N       1.28     -21.31      39.32
N       0.86      59.48      38.01
N       1.28       3.11      70.88
N       0.86      44.80       1.57
N       1.28      18.24      33.95
N       0.85      20.58      32.50
