36

Fe      -0.01       1.17       8.97
Fe      -2.40      -0.33       7.83
Fe       1.93      -0.33       9.58
H      -2.20       2.64       9.69
H      -1.45       4.74      10.68
H      -1.11       4.54       8.93
H       0.16       4.18      10.13
H      -4.48      -0.30       6.17
H      -3.63      -0.50       3.88
H      -3.38      -1.95       4.93
H      -2.06      -0.77       4.71
H      -0.11      -1.73      10.40
H       0.73      -3.62      11.73
H       1.01      -2.00      12.46
H       2.31      -2.80      11.53
C       2.58       2.21       8.09
C       0.27      -1.46       7.30
C      -2.04      -0.19      10.92
C      -1.91       2.59       7.03
C      -0.92       4.14       9.93
C       2.52      -2.62       7.52
C      -3.15      -0.88       4.79
C       0.20       0.57      11.95
C       1.23      -2.65      11.61
O       1.36       2.54       8.19
O       3.06       1.15       8.69
O      -0.97      -1.60       7.09
O       0.79      -0.35       7.76
O       3.51      -0.30      11.11
O      -1.46      -0.35       9.76
O      -1.41       1.39       7.40
O      -1.30       2.75      10.04
O       3.02      -1.70       8.39
O      -3.55      -0.10       5.94
O       0.79       0.89      10.78
O       0.82      -2.04      10.36
