16

H       5.69       6.09       0.72
H       7.41       3.99      -2.18
H       9.05       3.32      -0.72
H       7.33       5.42       2.18
C       6.38       5.13      -0.90
C       6.37       5.53       0.42
C       7.39       4.29      -1.30
C       5.31       5.58      -1.87
C       8.37       4.28       0.90
C       8.37       3.88      -0.42
C       7.35       5.13       1.30
C       9.44       3.84       1.87
O       4.44       6.42      -1.49
O       5.27       5.10      -3.03
O      10.30       3.00       1.49
O       9.47       4.32       3.03
