16

H      10.52      10.47       7.86
H      10.35      11.76       4.05
H      12.65      11.48       3.86
H      12.82      10.19       7.67
C      10.22      11.13       5.98
C      10.95      10.67       7.06
C      10.85      11.44       4.78
C       8.72      11.27       6.09
C      12.95      10.82       5.75
C      12.22      11.28       4.66
C      12.32      10.51       6.95
C      14.45      10.67       5.64
O       8.18      10.95       7.17
O       8.12      11.72       5.08
O      14.99      11.00       4.55
O      15.05      10.23       6.64
