92

Cu       0.24       2.86      13.67
Cu       2.92       3.13      13.97
H       0.72       4.51      20.60
H      -0.08      -1.32      23.01
H       2.44       1.47       7.04
H       4.16       7.19       1.41
H      -1.00      -1.20      26.23
H       1.66       5.00      27.05
H       1.49       0.98       0.59
H       4.07      -0.91      14.04
H      -0.91       6.90      13.60
H       3.24       7.31       4.63
C       1.33       5.53      13.87
C       3.05       4.96       3.67
C       1.21       2.64      17.81
C       1.95       3.35       9.83
C       3.23       5.28       0.85
C      -0.08       0.71      26.79
C       2.21       3.05       0.56
C       0.95       2.93      27.08
C       2.65       4.10       1.40
C       0.51       1.88      26.24
C       3.70       6.27       1.75
C       1.83       0.45      13.77
C      -0.54      -0.29      25.89
C       3.57       6.15       3.12
C      -0.41      -0.17      24.52
C       1.35       2.78      16.36
C       1.81       3.21      11.28
C       1.43       4.12      26.48
C       1.73       1.87       1.16
C       1.19       6.96      13.90
C       1.97      -0.97      13.74
C       1.50       3.16      22.88
C       0.63       2.02      24.83
C       1.66       2.83       4.76
C       0.07       1.29      22.59
C       3.08       4.70       5.05
C       1.26       1.23      19.80
C       1.90       4.76       7.84
C       1.23       1.36      18.40
C       1.92       4.63       9.24
C       1.10       3.77      18.62
C       2.05       2.21       9.02
C       0.91       3.63      20.00
C       2.53       3.97       2.81
C       2.25       2.36       7.64
C       1.01       2.37      20.61
C       2.14       3.62       7.03
C       1.27       5.10      18.08
C       1.89       0.89       9.56
C      -2.06       4.15      15.18
C       5.22       1.84      12.46
C       1.86       5.55      24.57
C       1.30       0.43       3.07
C       1.97       5.80      10.09
C       1.24       3.15      24.26
C       1.19       0.18      17.55
C       1.56       6.04       7.25
C       1.60      -0.05      20.39
C       1.91       2.83       3.38
C       1.57       4.24      25.10
C       1.59       1.75       2.54
C       0.11       1.02      23.97
N       0.87       2.26      22.05
N      -0.90       7.85       3.49
N       2.03       6.74      10.77
N       1.13      -0.75      16.87
N       1.28       7.06       6.78
N       1.88      -1.07      20.86
N       2.28       3.73       5.59
N       4.93       3.33      14.19
N      -1.78       2.66      13.45
N       1.43       6.16      17.64
N       1.73      -0.17      10.00
N      -1.63       4.83      16.00
N       4.79       1.15      11.64
N       4.05      -1.86      24.15
O       0.26       4.81      13.72
O       0.77       1.95       5.28
O       3.94       5.38       5.85
O      -0.78       0.61      21.79
O       3.88       7.25       3.89
O      -0.73      -1.27      23.75
O       2.90       1.17      13.92
O       2.52       5.04      13.97
O       0.63       0.95      13.67
O       0.28       2.71      15.62
O       2.88       3.28      12.02
O       2.54       2.93      15.87
O       0.61       3.05      11.77
O       2.39       4.04      22.36
