26

H       8.21       5.96      17.36
H       5.83       4.06      20.41
H       5.98       5.20      18.21
H      10.25       5.58      18.72
H      11.39       5.96      24.21
H      13.77       4.06      21.16
H      13.62       5.20      23.35
H       9.36       5.58      22.84
C       7.93       4.20      20.83
C       7.77       3.49      22.14
O       6.77       3.89      22.87
C       8.14       5.44      18.31
C       9.20       4.63      20.35
C       6.80       4.40      20.04
C       6.89       5.03      18.79
C       9.28       5.23      19.08
C      11.67       4.20      20.74
O       8.56       2.58      22.47
C      11.84       3.49      19.42
O      12.84       3.89      18.70
C      10.40       4.63      21.21
C      12.81       4.40      21.53
C      12.72       5.03      22.77
C      10.33       5.23      22.48
C      11.47       5.44      23.25
O      11.04       2.58      19.10
