26

H       6.50      14.67       6.97
H       8.87      12.77      10.02
H       8.73      13.92       7.83
H       4.46      14.31       8.33
H       3.31      14.67      13.82
H       0.93      12.77      10.76
H       1.08      13.92      12.95
H       5.34      14.31      12.45
O       7.92      12.60      12.48
O       6.10      11.31      12.08
O       1.89      12.60       8.30
O       3.70      11.31       8.71
C       6.77      12.92      10.44
C       6.91      12.21      11.75
C       6.57      14.16       7.92
C       5.50      13.35       9.96
C       7.91      13.12       9.65
C       7.82      13.75       8.40
C       5.43      13.96       8.69
C       3.04      12.92      10.34
C       2.89      12.21       9.03
C       3.23      14.16      12.86
C       4.30      13.35      10.82
C       1.90      13.12      11.13
C       1.98      13.75      12.38
C       4.38      13.96      12.09
