174

Cd       4.29      -0.88       8.44
Cd      -1.50       9.08       5.74
Cd       1.53      -0.39      10.74
Cd       1.26       8.62       3.44
Cd      -1.24       1.35       9.14
Cd       4.02       6.87       5.01
H      -0.94      12.66       3.13
H       2.11      10.79       7.51
H       3.90       0.07       3.70
H       2.91       9.15       9.20
H       6.86      -1.73       3.04
H      -0.11      -0.93       5.01
H       2.18      -1.27       2.48
H       0.61       9.45      11.70
H      -1.10       8.12      10.46
H       3.50      12.18       2.90
H       3.72      -4.47      11.06
H      -0.71      -3.94      11.29
H      -2.36       9.12       8.57
H       5.15      -0.93       5.59
H       0.68      -2.59       6.69
H      -1.33      -6.34      11.17
H       1.10      -4.94      12.27
H      -3.44       3.61      11.96
H       0.98       3.67      12.52
H       6.86       3.53       0.04
H       2.37      -2.82      12.20
H      -2.89      -3.31      12.49
H      -2.08      -1.03      13.08
H      -0.63      -5.31      14.03
H       5.68      11.56       1.65
H       1.78       4.58       1.64
H       6.25       4.61       2.19
H      -4.06       4.70      14.11
H       1.69      13.17       1.91
H       3.38      13.56       0.13
H       4.87       9.27       1.08
H       0.42      11.04       1.98
H      -3.35       6.70      11.80
H      -3.73       7.34       9.41
H      -0.37       3.84      10.54
H       3.48       3.70       8.53
H       4.42       3.25       1.79
H       0.13       3.86       3.35
H       1.36       6.44      11.11
H      -1.63       4.98      12.35
H       6.14       1.53       2.32
H       6.52       0.88       4.71
H       0.72       7.76       9.11
H       3.16       4.38       3.61
H       2.69       4.33      10.81
H       2.09       0.43       5.08
H      -0.67       4.50       5.62
H       1.45       1.74       3.06
C       0.03       9.90      10.89
C       0.53      12.67       4.68
C       2.75      -1.71       3.29
C       0.05      -2.90       5.86
C       4.40      -1.51       5.06
C       2.74      11.10       8.33
C      -1.61       9.71       9.12
C       4.47      13.88       3.80
C      -0.20      13.26       3.65
C       3.70      -0.96       3.99
C      -1.67      -5.65      10.40
C      -1.33      -4.30      10.48
C       3.94      10.21       4.50
C      -2.99      12.04       5.75
C       4.18      -2.85       5.41
C       4.13      12.53       3.71
C      -1.40      11.05       8.77
C       2.56      -3.06       9.12
C       0.23      11.26       5.07
C       3.17      10.20       9.30
C      -1.15      -1.99       9.67
C       2.98      -5.07      10.54
C       5.78      -3.83       8.44
C      -0.91       9.15      10.18
C      -1.73      -3.37       9.51
C       2.25      -4.47       9.51
C      -0.37      -1.99       4.90
C       4.53      11.59       4.67
C       0.91      -4.18      13.03
C       6.87       5.13       1.48
C      -0.24       7.14       0.87
C       1.42      -2.01      13.96
C       3.82       1.79      12.36
C      -4.07       3.09      12.68
C      -0.49       2.34      13.30
C      -1.03       6.43       1.80
C       5.93      11.12       0.69
C       4.40       1.24      11.08
C       1.87      12.41       1.15
C       1.63      -2.99      12.98
C       5.50       9.83       0.39
C       3.03       1.09      13.29
C       2.81      12.64       0.14
C       2.98       6.94       1.90
C      -3.14      -2.87      13.46
C      -0.05      -4.39      14.02
C       1.37      10.24       0.21
C      -2.71      -1.59      13.77
C       2.52       4.72       0.87
C       7.20       4.54       0.26
C       3.27       5.90       0.87
C      -1.60       6.98       3.08
C      -0.19       1.30      12.27
C       1.16      11.21       1.20
C      -4.40       3.69      13.89
C       0.25       3.53      13.30
C       1.35       6.88       9.00
C      -1.83       5.25      11.32
C       0.26       2.84       6.60
C       4.62       2.98       2.82
C       1.70       6.12      10.12
C       1.05       1.68       6.46
C       4.13       3.25       5.18
C      -1.34       4.96       8.97
C      -0.05       3.62       5.47
C       5.78       1.63       4.45
C       1.45       1.31       5.17
C       0.38       3.24       4.21
C      -2.56       6.36       7.23
C       5.06       2.22       5.49
C       1.75       6.52       7.71
C       1.12       2.06       4.05
C       2.85       4.58       8.68
C       1.63       0.85       7.58
C       2.54       5.36       7.55
C      -1.12       4.60      10.31
C       5.57       2.00       3.12
C      -2.78       6.22      11.01
C       5.36       1.84       6.90
C      -2.99       6.59       9.68
C       1.16       7.36       6.60
C       2.43       4.95       9.95
C       3.91       3.62       3.84
C      -2.26       5.99       8.65
N       4.93      -3.52       6.38
N       5.20      -2.94       7.48
N      -2.15      11.72       7.80
N      -2.41      11.15       6.70
N       0.35       8.41       1.17
N       0.61       9.07       0.12
N       2.44      -0.18      13.00
N       2.18      -0.84      14.05
N      -0.32       3.22       7.85
N       3.38       3.75       6.25
N       3.12       4.99       6.30
N      -0.59       4.45       7.90
O       2.77      10.20       4.03
O       2.40      -2.68       7.94
O       0.02      -1.97      10.14
O      -1.84      -0.96       9.36
O       3.08      -2.29      10.04
O       4.64       9.18       4.80
O      -0.27      10.49       4.15
O       0.38      10.89       6.26
O       2.46       6.53       3.03
O      -0.90       7.76       3.82
O      -2.74       1.64      10.82
O       3.70       0.45      10.35
O       3.14       8.16       1.63
O       5.53       6.59       3.34
O      -0.34       0.09      12.54
O       0.32       1.71      11.14
O      -3.06       7.54       7.02
O       2.81       0.44       7.36
O      -2.41       5.51       6.32
O       5.22       2.68       7.82
O       1.86       7.63       5.56
O       0.94       0.60       8.62
O      -0.01       7.76       6.82
O       5.87       0.66       7.11
