11

Zn      -1.75       6.13       3.02
O      -1.36       7.94       3.79
C      -0.35       7.90       4.63
C      -3.94       5.77       1.37
C      -1.35       4.39       5.45
C      -3.01       3.65       4.21
C      -0.39       4.90       0.62
C       1.06       5.92       1.91
N      -2.08       4.67       4.36
N      -0.29       5.65       1.73
O      -3.50       6.67       2.20
