32

S       2.39      10.39      14.88
S       3.79      18.11      10.10
H       1.97      13.04      14.19
H       5.16      13.92      11.41
H       5.92      11.58      11.58
H       1.77      15.06      14.44
H       0.98      17.37      14.17
H       4.02      15.48      10.78
O       4.10       8.56      12.96
O       6.13       9.41      12.89
O       1.55       9.43      14.05
O       1.51      11.30      15.62
O       3.41       9.69      15.67
O       0.46      19.45      12.77
O       2.47      20.18      12.20
O       2.75      18.94       9.46
O       4.83      18.95      10.84
O       4.44      17.12       9.24
C       4.36      10.98      12.94
C       3.25      11.42      13.69
C       2.82      12.75      13.58
C       3.47      13.67      12.74
C       4.60      13.23      12.04
C       5.04      11.91      12.13
C       4.87       9.59      12.94
C       2.98      15.07      12.64
C       2.10      15.64      13.58
C       1.67      16.95      13.45
C       2.14      17.78      12.41
C       3.02      17.22      11.46
C       3.39      15.88      11.57
C       1.66      19.20      12.44
