32

S      -0.45      10.21       1.56
S       0.94      10.50      10.64
H      -0.89       9.50       4.22
H       2.30      11.47       6.35
H       3.05      12.50       4.23
H      -1.10       8.28       5.83
H      -1.87       7.35       7.97
H       1.18      11.23       8.02
O       1.23      12.80       0.94
O       3.27      12.41       1.70
O      -1.29      11.39       1.14
O      -1.33       9.10       1.98
O       0.58       9.87       0.58
O      -2.37       7.51      10.46
O      -0.36       7.65      11.38
O      -0.09      10.64      11.67
O       1.97       9.43      10.99
O       1.60      11.73      10.20
C       1.49      11.61       3.04
C       0.39      10.74       3.06
C      -0.04      10.17       4.25
C       0.60      10.44       5.47
C       1.74      11.28       5.44
C       2.17      11.85       4.25
C       2.00      12.29       1.83
C       0.12       9.84       6.73
C      -0.75       8.73       6.76
C      -1.18       8.18       7.96
C      -0.71       8.66       9.20
C       0.17       9.77       9.18
C       0.54      10.35       7.97
C      -1.17       7.92      10.41
