14

C      14.89       8.11      27.74
O      13.86       6.68      30.71
O      15.51       8.20      31.15
C      16.72       5.01      31.34
Cu      16.68       7.37      29.80
Cu      14.91       5.78      29.31
O      17.33       6.12      31.17
C      17.24       5.47      27.76
O      15.71       4.60      30.67
O      17.76       6.43      28.44
O      16.07       4.99      27.93
O      15.92       8.51      28.39
O      14.23       7.04      27.97
C      14.37       7.66      31.37
