14

Cu      -2.92      19.98      28.58
O      -3.90      17.22      27.71
O      -2.27      18.73      27.21
Cu      -4.69      18.39      29.07
C      -2.36      18.09      30.62
C      -2.89      17.62      27.04
O      -1.84      19.04      29.93
O      -3.53      17.60      30.45
O      -3.69      21.12      29.98
O      -5.38      19.65      30.41
O      -5.74      19.29      27.66
O      -4.09      20.81      27.23
C      -4.72      20.73      30.63
C      -5.24      20.27      27.01
