14

Cu      12.79      17.86       9.12
Cu      14.57      19.45       9.61
C      12.76      20.22       7.58
C      12.23      19.75      11.16
C      15.11      17.57       7.55
O      15.61      18.55       8.20
O      13.97      17.03       7.77
O      12.14      19.11       7.75
O      13.77      20.63       8.25
C      14.59      17.12      11.18
O      11.72      18.80      10.48
O      13.41      20.24      10.99
O      13.56      16.72      10.52
O      15.25      18.19      10.95
