35

O       0.82       8.17       7.28
O       2.55       8.37       5.79
O      -2.87      -0.71       6.56
O      -4.74      -0.66       5.26
H      -1.17       7.04       6.24
H      -2.24       5.41       4.72
H       1.42       5.17       2.45
H       2.47       6.73       4.00
H      -0.28       2.92       4.72
H      -1.22       1.04       6.01
H      -4.70       1.06       3.52
H      -3.76       2.89       2.18
F       0.74       2.83       2.21
F       0.31       4.32       0.66
F      -0.89       2.49       0.80
F      -1.66       6.08       1.13
C      -1.21       5.70       4.54
F      -2.76       4.28       0.61
F      -3.30       5.40       2.41
C       1.42       7.91       6.18
C       0.74       6.96       5.24
C      -0.60       6.60       5.42
C      -0.50       5.16       3.45
C       0.83       5.55       3.27
C       1.44       6.44       4.15
C      -1.24       4.16       2.53
C      -0.27       3.45       1.54
C      -3.73       1.47       3.77
C      -3.19       2.51       3.02
C      -3.59      -0.24       5.62
C      -2.25       4.98       1.66
C      -1.94       3.05       3.34
C      -1.24       2.51       4.44
C      -3.03       0.92       4.85
C      -1.78       1.46       5.18
