18

H       8.32       6.06      13.63
H       6.95       4.06      10.06
C       9.60       3.83      14.72
H       9.25       1.90      12.97
C       8.86       3.97      13.46
C       8.27       5.16      13.03
C       7.60       5.20      11.78
C       7.00       6.49      11.35
C       7.49       4.04      11.00
C       8.08       2.85      11.45
C       7.98       1.56      10.70
C       8.78       2.83      12.65
O      10.40       2.82      14.82
O       9.48       4.60      15.73
O       7.14       7.47      12.17
O       6.40       6.53      10.22
O       7.18       1.50       9.72
O       8.70       0.59      11.13
