18

O       4.53       8.39      11.56
O       3.70       6.55      10.69
O       1.23       3.74      14.20
O       0.48       4.69      16.15
O       1.38       9.69      16.70
O       2.84      10.61      15.23
C       3.78       7.34      11.69
C       3.04       7.21      12.95
C       2.42       6.03      13.37
C       1.74       6.00      14.60
C       1.10       4.72      15.02
C       1.63       7.16      15.38
C       2.24       8.34      14.95
C       2.14       9.63      15.69
C       2.96       8.35      13.75
H       2.48       5.13      12.77
H       1.07       7.14      16.32
H       3.45       9.27      13.45
