15

H      -1.22      -1.51      11.30
H      -1.10       1.08      13.26
H      -0.71       0.89      11.53
H      -2.88      -3.33      11.43
H      -4.02      -2.26      12.30
N      -3.73      -1.75      10.28
C      -2.24       2.36      11.91
C      -1.52       1.05      12.25
C      -2.02      -1.44      12.03
C      -3.20      -2.30      11.56
H      -3.07       2.52      12.61
H      -1.67      -1.79      13.01
H      -1.55       3.21      11.99
N      -2.85       2.28      10.56
N      -2.49      -0.04      12.08
