15

N       6.16       1.21       4.53
N       6.51       3.69       5.78
N       5.27       2.98       8.15
H       7.46       1.98       3.01
H       5.93       2.87       3.30
H       7.34       5.37       6.83
H       7.78       3.74       7.44
H       7.90       4.15       4.22
H       8.29       2.75       5.25
H       6.12       4.76       8.96
H       4.99       4.98       7.59
C       6.76       2.34       3.78
C       7.49       3.29       4.75
C       6.98       4.35       7.02
C       5.80       4.36       7.99
