15

H       6.15      -3.21       8.07
H       5.71      -4.56       6.97
H       5.59      -1.56       5.71
H       5.20      -3.16       5.01
H       7.37      -5.36       8.61
H       8.50      -4.06       8.12
N       7.33      -3.30       3.32
N       6.98      -3.15       6.09
N       8.22      -5.55       6.66
C       6.73      -2.09       3.92
C       6.01      -2.45       5.22
C       6.51      -3.88       7.28
C       7.69      -4.72       7.78
H       6.04      -1.60       3.22
H       7.56      -1.41       4.13
