608

Zn      20.84      12.57      20.03
Zn      19.01      11.77      22.39
Zn       1.52       7.53       5.69
Zn       1.32       7.96      21.92
Zn      19.55       0.99      20.03
Zn      21.37       1.80      22.40
Zn      11.95       6.06       5.69
Zn      12.15       5.58      21.92
Zn       7.38      14.53      21.36
Zn       5.55      15.34      19.01
Zn      14.98      19.55       8.12
Zn      14.78      19.13      19.50
Zn       6.09      26.11      21.36
Zn       7.92      25.29      19.00
Zn      25.41      21.04       8.10
Zn      25.60      21.50      19.50
Zn       6.08      14.52       7.55
Zn       7.92      15.34       5.18
Zn      25.41      19.59      21.88
Zn      25.59      19.12       5.69
Zn       7.38      26.10       7.59
Zn       5.56      25.30       5.23
Zn      14.98      21.09      21.93
Zn      14.78      21.50       5.69
Zn      19.54      12.56       6.25
Zn      21.36      11.74       8.59
Zn      11.96       7.49      19.49
Zn      12.07       8.01       8.12
Zn      20.84       0.98       6.22
Zn      19.01       1.79       8.58
Zn       1.52       6.01      19.50
Zn       1.32       5.58       8.11
H      24.21      10.00      21.63
H      25.98       9.68      25.54
H      22.08      11.47      25.08
H      25.03       9.26       0.17
H      25.88       9.38       2.63
H      24.29       9.41       6.61
H      22.12      11.34       3.42
H      22.68      16.71      20.28
H      24.50      18.62      16.86
H      22.51      14.81      16.42
H      22.51      15.47      13.81
H      23.00      14.44      11.71
H      23.35      15.84       7.66
H      24.77      18.30      10.92
H      16.19       3.56      21.63
H      14.39       3.88      25.53
H      18.30       2.10      25.11
H      15.33       4.28       0.17
H      14.48       4.16       2.63
H      16.09       4.13       6.61
H      18.25       2.21       3.40
H      17.69      23.93      20.29
H      15.87      22.03      16.87
H      17.89      25.82      16.43
H      17.88      25.16      13.81
H      17.40      26.17      11.71
H      17.02      24.76       7.66
H      15.62      22.32      10.94
H      10.73      17.13      19.79
H      12.54      17.42      15.89
H       8.62      15.65      16.32
H      11.58      17.82      13.61
H      12.42      17.67      11.18
H      10.84      17.66       7.19
H       8.65      15.74      10.38
H       9.28      10.39      21.10
H      11.05       8.49      24.55
H       9.05      12.30      24.95
H       9.05      11.64      27.59
H       9.55      12.65       2.06
H       9.92      11.26       6.12
H      11.31       8.79       2.85
H       2.72      23.53      19.80
H       0.94      23.20      15.89
H       4.84      24.99      16.34
H       1.87      22.80      13.65
H       1.03      22.91      11.18
H       2.63      22.96       7.20
H       4.78      24.89      10.41
H       4.21       3.17      21.12
H       2.42       5.06      24.56
H       4.41       1.25      24.96
H       4.42       1.93      27.61
H       3.93       0.91       2.09
H       3.56       2.32       6.13
H       2.15       4.76       2.86
H       2.71      17.11       5.98
H       0.93      17.43       2.08
H       4.84      15.65       2.52
H       1.87      17.84      27.44
H       1.01      17.69      24.97
H       2.61      17.65      20.99
H       4.79      15.75      24.20
H       4.22      10.37       7.31
H       2.44       8.47      10.75
H       4.40      12.30      11.15
H       4.42      11.62      13.80
H       3.93      12.63      15.91
H       3.55      11.22      19.95
H       2.15       8.78      16.67
H      10.77      23.53       6.00
H      12.52      23.20       2.08
H       8.62      24.99       2.55
H      11.57      22.82      27.44
H      12.41      22.96      25.01
H      10.84      22.97      21.01
H       8.64      24.88      24.19
H       9.22       3.17       7.31
H      11.01       5.10      10.73
H       9.05       1.27      11.16
H       9.04       1.93      13.78
H       9.54       0.89      15.88
H       9.94       2.29      19.93
H      11.30       4.76      16.65
H      16.14       9.98       7.81
H      14.36       9.69      11.73
H      18.30      11.41      11.27
H      15.33       9.26      13.99
H      14.49       9.39      16.43
H      16.09       9.41      20.41
H      18.27      11.34      17.21
H      17.67      16.70       6.49
H      15.89      18.60       3.06
H      17.88      14.79       2.65
H      17.88      15.48      27.62
H      17.36      14.46      25.52
H      17.03      15.89      21.47
H      15.64      18.34      24.75
H      24.21       3.56       7.81
H      25.97       3.88      11.72
H      22.07       2.09      11.26
H      25.03       4.28      13.98
H      25.88       4.15      16.42
H      24.30       4.12      20.42
H      22.12       2.19      17.23
H      22.69      23.93       6.47
H      24.50      22.01       3.06
H      22.51      25.81       2.62
H      22.51      25.16      27.62
H      23.00      26.19      25.52
H      23.37      24.78      21.47
H      24.77      22.32      24.74
C      21.89      11.29      22.42
C      23.04      10.82      23.26
C      24.15      10.18      22.70
C      25.19       9.74      23.54
C      26.35       9.02      22.95
C      25.14       9.98      24.92
C      24.01      10.60      25.46
C      22.95      11.01      24.64
C      24.38      10.12       0.30
C      23.82      10.71       1.42
C      23.96      10.37       2.83
C      25.07       9.66       3.30
C      25.19       9.31       4.65
C      26.41       8.61       5.10
C      24.19       9.68       5.56
C      23.09      10.42       5.11
C      22.07      10.90       6.08
C      22.97      10.76       3.75
C      21.80      14.50      18.99
C      22.50      15.67      18.39
C      22.91      16.73      19.21
C      23.64      17.79      18.65
C      24.19      18.86      19.51
C      23.93      17.80      17.28
C      23.51      16.74      16.45
C      22.81      15.67      17.02
C      23.86      16.81      15.03
C      23.33      16.17      13.92
C      23.87      16.41      11.47
C      23.29      15.23      11.02
C      23.09      15.04       9.65
C      22.43      13.79       9.19
C      23.51      16.00       8.72
C      24.14      17.16       9.18
C      24.63      18.21       8.24
C      24.30      17.38      10.56
C      18.52       2.27      22.47
C      17.36       2.74      23.27
C      16.25       3.38      22.70
C      15.20       3.81      23.53
C      14.02       4.50      22.94
C      15.24       3.58      24.92
C      16.37       2.96      25.47
C      17.43       2.56      24.66
C      15.98       3.43       0.30
C      16.55       2.84       1.42
C      16.41       3.18       2.83
C      15.29       3.89       3.30
C      15.18       4.23       4.65
C      13.96       4.94       5.10
C      16.18       3.87       5.56
C      17.28       3.13       5.10
C      18.31       2.64       6.06
C      17.40       2.79       3.75
C      18.59      26.14      19.00
C      17.89      24.97      18.40
C      17.47      23.91      19.22
C      16.73      22.86      18.66
C      16.16      21.78      19.52
C      16.45      22.84      17.29
C      16.88      23.89      16.46
C      17.58      24.96      17.03
C      16.53      23.83      15.04
C      17.06      24.46      13.93
C      16.51      24.20      11.48
C      17.09      25.38      11.03
C      17.29      25.57       9.65
C      17.96      26.82       9.19
C      16.87      24.60       8.73
C      16.24      23.44       9.19
C      15.74      22.39       8.26
C      16.08      23.23      10.57
C       8.40      15.84      18.96
C       9.56      16.31      18.15
C      10.67      16.95      18.71
C      11.73      17.37      17.89
C      12.90      18.07      18.49
C      11.69      17.12      16.50
C      10.56      16.51      15.95
C       9.50      16.11      16.76
C      10.93      16.96      13.50
C      10.36      16.36      12.38
C      10.49      16.70      10.97
C      11.61      17.40      10.51
C      11.73      17.75       9.16
C      12.96      18.45       8.72
C      10.74      17.40       8.24
C       9.63      16.66       8.69
C       8.61      16.18       7.71
C       9.51      16.32      10.04
C       8.37      12.60      22.37
C       9.07      11.43      22.98
C       9.49      10.37      22.17
C      10.22       9.32      22.74
C      10.79       8.24      21.90
C      10.49       9.31      24.12
C      10.06      10.37      24.94
C       9.36      11.44      24.35
C      10.40      10.30      26.36
C       9.87      10.94      27.47
C      10.42      10.67       2.30
C       9.85      11.86       2.75
C       9.66      12.06       4.13
C       9.00      13.31       4.58
C      10.07      11.09       5.05
C      10.70       9.93       4.59
C      11.19       8.88       5.54
C      10.85       9.71       3.21
C       5.04      24.82      18.99
C       3.89      24.34      18.16
C       2.78      23.71      18.73
C       1.74      23.27      17.89
C       0.57      22.56      18.49
C       1.78      23.51      16.51
C       2.91      24.13      15.96
C       3.97      24.53      16.78
C       2.52      23.66      13.52
C       3.09      24.24      12.40
C       2.95      23.91      10.98
C       1.84      23.19      10.51
C       1.73      22.85       9.16
C       0.51      22.14       8.71
C       2.72      23.23       8.25
C       3.82      23.97       8.71
C       4.84      24.47       7.75
C       3.93      24.31      10.06
C       5.10       0.95      22.38
C       4.41       2.12      22.99
C       3.99       3.18      22.19
C       3.26       4.24      22.76
C       2.70       5.32      21.90
C       2.99       4.24      24.13
C       3.41       3.19      24.95
C       4.11       2.12      24.37
C       3.07       3.25      26.38
C       3.60       2.62      27.49
C       3.05       2.88       2.32
C       3.63       1.70       2.77
C       3.82       1.51       4.15
C       4.49       0.27       4.61
C       3.40       2.48       5.07
C       2.77       3.64       4.60
C       2.27       4.69       5.54
C       2.61       3.85       3.22
C       5.04      15.83       5.17
C       3.89      16.30       4.35
C       2.77      16.94       4.91
C       1.73      17.36       4.08
C       0.57      18.07       4.67
C       1.78      17.13       2.69
C       2.91      16.51       2.14
C       3.97      16.12       2.96
C       2.52      16.98      27.31
C       3.09      16.39      26.19
C       2.94      16.72      24.77
C       1.82      17.41      24.30
C       1.71      17.75      22.95
C       0.48      18.45      22.49
C       2.71      17.38      22.04
C       3.81      16.65      22.50
C       4.83      16.16      21.53
C       3.93      16.32      23.86
C       5.10      12.60       8.57
C       4.41      11.43       9.18
C       4.00      10.36       8.38
C       3.28       9.30       8.95
C       2.73       8.22       8.09
C       3.00       9.30      10.32
C       3.41      10.36      11.14
C       4.11      11.43      10.56
C       3.07      10.30      12.56
C       3.60      10.93      13.68
C       3.05      10.66      16.13
C       3.62      11.84      16.59
C       3.81      12.03      17.96
C       4.46      13.28      18.43
C       3.40      11.06      18.88
C       2.77       9.90      18.41
C       2.27       8.85      19.35
C       2.61       9.69      17.04
C       8.44      24.82       5.20
C       9.59      24.35       4.37
C      10.70      23.71       4.93
C      11.73      23.27       4.08
C      12.90      22.56       4.67
C      11.68      23.50       2.70
C      10.55      24.12       2.16
C       9.50      24.53       2.98
C      10.91      23.67      27.32
C      10.34      24.26      26.21
C      10.48      23.92      24.79
C      11.61      23.22      24.33
C      11.73      22.88      22.98
C      12.96      22.18      22.54
C      10.74      23.23      22.06
C       9.63      23.97      22.51
C       8.62      24.45      21.53
C       9.50      24.31      23.86
C       8.34       0.96       8.60
C       9.03       2.13       9.19
C       9.44       3.19       8.37
C      10.16       4.26       8.93
C      10.71       5.34       8.08
C      10.44       4.27      10.30
C      10.04       3.21      11.13
C       9.34       2.14      10.56
C      10.39       3.27      12.55
C       9.86       2.63      13.66
C      10.42       2.87      16.11
C       9.85       1.68      16.56
C       9.66       1.49      17.94
C       9.00       0.25      18.40
C      10.09       2.46      18.86
C      10.70       3.63      18.39
C      11.20       4.69      19.32
C      10.85       3.84      17.02
C      18.49      11.25       8.63
C      17.33      10.78       9.45
C      16.21      10.16       8.89
C      15.16       9.74       9.72
C      13.98       9.05       9.13
C      15.21       9.98      11.11
C      16.35      10.57      11.65
C      17.42      10.96      10.83
C      15.99      10.11      14.10
C      16.56      10.71      15.22
C      16.42      10.37      16.63
C      15.31       9.66      17.10
C      15.19       9.31      18.45
C      13.97       8.61      18.89
C      16.19       9.67      19.36
C      17.29      10.42      18.91
C      18.32      10.91      19.87
C      17.41      10.76      17.55
C      18.56      14.48       5.23
C      17.87      15.66       4.62
C      17.45      16.72       5.43
C      16.72      17.77       4.86
C      16.16      18.85       5.71
C      16.45      17.78       3.49
C      16.87      16.73       2.66
C      17.57      15.65       3.24
C      16.53      16.79       1.24
C      17.06      16.16       0.12
C      16.51      16.45      25.29
C      17.07      15.25      24.84
C      17.27      15.07      23.46
C      17.93      13.81      23.00
C      16.87      16.04      22.54
C      16.26      17.21      23.01
C      15.76      18.27      22.07
C      16.10      17.42      24.38
C      21.89       2.26       8.61
C      23.04       2.74       9.44
C      24.15       3.38       8.88
C      25.18       3.81       9.72
C      26.35       4.53       9.13
C      25.13       3.58      11.11
C      24.00       2.96      11.65
C      22.95       2.55      10.82
C      24.37       3.43      14.10
C      23.81       2.83      15.22
C      23.95       3.16      16.64
C      25.07       3.87      17.10
C      25.19       4.22      18.45
C      26.42       4.92      18.89
C      24.20       3.85      19.37
C      23.10       3.11      18.92
C      22.09       2.62      19.89
C      22.98       2.77      17.56
C      21.81      26.13       5.19
C      22.50      24.96       4.59
C      22.91      23.90       5.41
C      23.64      22.85       4.85
C      24.20      21.77       5.72
C      23.93      22.83       3.48
C      23.51      23.88       2.65
C      22.81      24.96       3.22
C      23.86      23.82       1.23
C      23.33      24.45       0.12
C      23.88      24.21      25.29
C      23.30      25.40      24.83
C      23.11      25.58      23.46
C      22.46      26.84      23.00
C      23.53      24.62      22.54
C      24.16      23.46      23.00
C      24.66      22.40      22.07
C      24.31      23.24      24.38
N      23.87      10.83      26.86
N      23.03      11.82      27.31
N      23.00      11.74       0.99
N      24.86      17.65      14.59
N      24.97      17.57      13.29
N      24.03      16.66      12.86
N      16.49       2.74      26.87
N      17.34       1.75      27.31
N      17.36       1.81       1.00
N      15.53      22.98      14.61
N      15.42      23.05      13.31
N      16.36      23.96      12.87
N      10.43      16.27      14.56
N       9.59      15.27      14.12
N       9.55      15.34      12.81
N      11.39       9.45      26.80
N      11.50       9.51       0.48
N      10.57      10.42       0.91
N       3.04      24.35      14.57
N       3.89      25.34      14.12
N       3.91      25.27      12.81
N       2.07       4.10      26.81
N       1.96       4.03       0.49
N       2.90       3.12       0.93
N       3.04      16.28       0.75
N       3.89      15.30       0.30
N       3.91      15.37      26.62
N       2.07       9.45      13.00
N       1.96       9.52      14.29
N       2.90      10.42      14.73
N      10.40      24.34       0.76
N       9.54      25.33       0.32
N       9.51      25.27      26.64
N      11.39       4.11      12.99
N      11.51       4.03      14.29
N      10.57       3.12      14.72
N      16.49      10.80      13.04
N      17.35      11.79      13.48
N      17.38      11.72      14.79
N      15.54      17.65       0.80
N      15.43      17.59      27.13
N      16.36      16.69      26.69
N      23.86       2.73      13.04
N      23.01       1.74      13.49
N      22.99       1.81      14.79
N      24.86      22.97       0.79
N      24.97      23.06      27.11
N      24.03      23.97      26.68
O      20.79      11.45      23.07
O      22.07      11.51      21.18
O      26.25       8.54      21.76
O       0.53       8.89      23.61
O      21.14      11.65       5.62
O      22.21      10.57       7.31
O      26.51       8.13       6.29
O       0.47       8.48       4.27
O      21.34      14.56      20.19
O      21.69      13.41      18.33
O      24.03      18.76      20.78
O      24.84      19.81      18.93
O      22.35      12.79      10.01
O      21.94      13.70       8.02
O      24.57      18.01       6.98
O      25.11      19.26       8.80
O      19.61       2.11      23.12
O      18.36       2.04      21.22
O      14.13       5.02      21.77
O      12.92       4.60      23.59
O      19.24       1.90       5.59
O      18.17       2.97       7.30
O      13.86       5.41       6.29
O      12.98       5.07       4.27
O      19.05      26.07      20.20
O      18.69       0.15      18.34
O      16.35      21.87      20.79
O      15.49      20.86      18.94
O      18.02       0.74      10.00
O      18.45      26.88       8.02
O      15.77      22.61       7.00
O      15.29      21.33       8.81
O       7.32      15.65      18.30
O       8.55      15.64      20.21
O      12.80      18.55      19.67
O      13.99      18.20      17.83
O       7.68      15.43       8.17
O       8.76      16.52       6.48
O      13.06      18.96       7.54
O      13.95      18.55       9.54
O       7.89      12.53      21.18
O       8.28      13.70      23.03
O      10.63       8.33      20.63
O      11.44       7.30      22.49
O       8.89      14.29       3.75
O       8.55      13.40       5.77
O      11.07       9.08       6.79
O      11.71       7.85       5.00
O       6.14      24.99      18.35
O       4.85      25.05      20.23
O       0.67      22.08      19.67
O      26.40      22.43      17.83
O       5.74      25.25       8.21
O       4.73      24.12       6.52
O       0.41      21.67       7.52
O      26.44      22.01       9.53
O       5.58       1.02      21.19
O       5.19      26.93      23.03
O       2.88       5.23      20.64
O       2.03       6.24      22.49
O       4.58      26.34       3.81
O       4.98       0.20       5.79
O       2.30       4.47       6.80
O       1.82       5.75       4.99
O       6.14      15.70       4.54
O       4.85      15.58       6.41
O       0.66      18.55       5.86
O      26.39      18.20       4.01
O       5.73      15.37      21.99
O       4.72      16.52      20.31
O       0.41      18.96      21.31
O      26.40      18.55      23.29
O       5.58      12.53       7.38
O       5.19      13.70       9.22
O       2.88       8.33       6.83
O       2.09       7.27       8.68
O       4.51      14.30      17.63
O       4.99      13.35      19.59
O       2.30       9.08      20.61
O       1.82       7.79      18.81
O       7.34      24.98       4.56
O       8.62      25.05       6.44
O      12.80      22.07       5.86
O      13.99      22.42       4.01
O       7.69      25.20      21.98
O       8.76      24.11      20.30
O      13.06      21.68      21.36
O      13.95      22.09      23.36
O       7.88       1.01       7.40
O       8.23      26.95       9.27
O      10.59       5.22       6.81
O      11.31       6.31       8.67
O       8.90      26.34      17.57
O       8.55       0.15      19.59
O      11.17       4.48      20.58
O      11.64       5.75      18.75
O      19.59      11.38       9.27
O      18.31      11.50       7.39
O      14.06       8.54       7.96
O      12.88       8.95       9.79
O      19.25      11.65      19.40
O      18.18      10.58      21.10
O      13.88       8.07      20.06
O      12.97       8.54      18.08
O      19.04      14.56       6.42
O      18.64      13.39       4.57
O      16.35      18.76       6.98
O      15.49      19.77       5.13
O      17.97      12.80      23.80
O      18.45      13.75      21.83
O      15.83      18.07      20.81
O      15.28      19.31      22.63
O      20.79       2.10       9.26
O      22.07       2.04       7.37
O      26.25       5.01       7.95
O       0.53       4.66       9.80
O      21.19       1.83      19.43
O      22.20       2.98      21.11
O      26.51       5.42      20.07
O       0.49       5.01      18.07
O      21.34      26.07       6.38
O      21.68       0.14       4.52
O      24.04      21.87       6.98
O      24.84      20.83       5.13
O      22.41       0.76      23.81
O      21.95      26.91      21.83
O      24.62      22.62      20.81
O      25.11      21.34      22.62
