13

N      -1.06      10.54      17.70
H      -2.54       9.52      16.66
H       1.49       8.08      16.08
H       2.27       9.88      17.69
H       0.55      11.43      18.65
O      -2.29       7.50      15.04
O      -0.11       6.98      14.71
C      -1.47       9.57      16.86
C      -0.58       8.67      16.26
C       0.79       8.77      16.55
C       1.22       9.77      17.42
C       0.27      10.63      17.97
C      -1.04       7.65      15.27
