88

P      -0.58       3.92       6.24
P       0.15       9.10      -6.24
P       4.04       6.78       5.08
P      -4.40       6.05      -5.14
H       2.38       8.75       5.11
H       4.20       9.29       6.95
H       4.61      10.69       5.92
H       1.56      11.45      -7.28
H      -0.13      11.22      -7.91
H       0.36      13.27      -5.76
H       0.76      13.66      -7.48
H      -0.91      13.20      -7.02
H      -1.90       1.97       7.71
H      -0.13       1.69       7.91
H      -2.15      -0.12       6.51
H      -1.05      -0.51       7.88
H      -0.40      -0.26       6.23
H       3.19       9.98       4.12
H       2.98      10.56       6.62
H      -3.02       3.96      -5.93
H      -4.59       3.54      -6.72
H      -3.72       1.45      -6.04
H      -4.88       1.87      -4.71
H      -3.67       4.02       1.96
H      -4.55       4.73      -0.04
H      -2.26       7.49      -6.36
H       1.41       9.16      -3.66
H       3.16       9.31      -1.94
H       4.05       8.67       0.25
H       3.84       7.42       2.35
H       2.07       5.08       6.18
C       3.81       9.99       6.19
C       0.49      11.54      -7.05
C       0.16      13.01      -6.81
C      -0.99       1.56       7.23
C      -1.16       0.08       6.96
C       3.36       9.25       4.94
C      -4.04       3.57      -5.75
C      -3.94       2.15      -5.21
C      -0.95       5.78       0.88
C      -1.70       4.96       1.73
C      -3.01       4.61       1.36
C      -3.53       5.01       0.16
C      -2.73       5.69      -0.78
C      -1.46       6.13      -0.40
C      -3.19       5.85      -2.09
C      -2.41       6.55      -3.06
C      -1.16       7.12      -2.64
C      -0.69       6.88      -1.31
C      -2.79       6.70      -4.43
C      -1.95       7.40      -5.33
C      -0.77       8.06      -4.92
C      -0.36       7.91      -3.54
C       0.33       6.19       1.28
C       0.82       5.83       2.58
C       0.04       5.02       3.46
C      -1.14       4.48       2.93
C       0.82       8.49      -3.04
C       1.31       8.20      -1.74
C       0.56       7.37      -0.88
C       1.07       7.01       0.41
C       2.56       8.67      -1.30
C       3.07       8.30      -0.05
C       2.34       7.47       0.82
C       2.09       6.31       3.00
C       2.85       7.10       2.09
C       2.52       6.03       4.32
C       1.71       5.26       5.18
C       0.45       4.79       4.83
N      -4.39       5.14      -2.41
N      -1.70       3.33       3.50
Cl      -2.62       2.01      -4.03
O      -2.04       4.37       6.03
O      -0.02       4.16       7.69
O       4.08       6.83       6.84
O       5.28       6.02       4.58
O      -0.76       2.20       6.00
O       4.38       8.39       4.51
O       1.61       8.65      -6.03
O      -0.41       8.86      -7.69
O      -4.51       6.19      -6.84
O       0.22      10.81      -5.89
O      -5.63       6.81      -4.60
O      -4.77       4.37      -4.85
O      -5.53       5.73      -2.19
O      -4.36       3.84      -2.36
O      -1.22       2.16       3.18
O      -2.90       3.43       3.97
