32

H       6.77       7.90       3.48
H       7.73       7.34      -3.48
H       8.34       5.04      -3.85
H       6.16      10.20       3.85
H       6.46      11.02      -0.34
H       8.05       4.21       0.34
C       7.09       9.47      -2.24
C       7.42       5.76       2.24
C       6.53      10.32       0.47
C       7.98       4.92      -0.47
C       6.27      10.77       1.77
C       8.24       4.46      -1.77
C       6.36       9.87       2.84
C       8.15       5.36      -2.84
C       6.71       8.54       2.62
C       7.80       6.69      -2.62
C       6.98       8.06       1.32
C       7.53       7.17      -1.32
C       6.88       8.97       0.22
C       7.62       6.26      -0.22
C       7.35       6.71       1.10
C       7.16       8.52      -1.10
N       5.92      12.15       2.01
N       8.59       3.08      -2.01
O       8.26       9.92      -2.70
O       6.25       5.31       2.70
O       5.87       9.76      -2.70
O       8.64       5.47       2.70
O       5.60      12.56       3.21
O       5.93      13.01       1.04
O       8.90       2.67      -3.21
O       8.58       2.22      -1.04
