32

H       3.19       0.40       4.76
H       4.06       0.98      11.73
H       4.64       3.29      12.11
H       2.62      -1.91       4.38
H       2.87      -2.73       8.58
H       4.38       4.11       7.91
C       3.46      -1.16      10.49
C       3.79       2.54       6.00
C       2.94      -2.02       7.77
C       4.31       3.40       8.72
C       2.70      -2.48       6.46
C       4.55       3.86      10.02
C       2.79      -1.58       5.40
C       4.46       2.96      11.09
C       3.12      -0.25       5.62
C       4.13       1.62      10.87
C       3.37       0.23       6.93
C       3.88       1.14       9.56
C       3.28      -0.67       8.02
C       3.98       2.04       8.47
C       3.72       1.59       7.15
C       3.53      -0.22       9.34
N       2.37      -3.87       6.22
N       4.88       5.24      10.26
O       4.63      -1.62      10.94
O       2.62       2.99       5.55
O       2.24      -1.46      10.94
O       5.02       2.83       5.55
O       2.10      -4.29       5.02
O       2.35      -4.72       7.20
O       5.15       5.66      11.47
O       4.90       6.10       9.28
