99

C      11.15      17.19       2.78
C      11.66      15.97       3.32
C      12.61      15.99       4.33
C      11.08      14.66       2.90
C       9.79      14.31       3.34
C       9.26      13.06       2.99
C       9.98      12.15       2.20
C      11.28      12.49       1.82
C      11.85      13.72       2.17
C      13.29      14.02       1.85
C       9.03      15.23       4.26
C       9.35      10.84       1.78
C      11.78      20.39       1.59
C      11.20      21.55       1.05
C       9.98      22.04       1.51
C       9.33      21.34       2.54
C       9.87      20.19       3.11
C      11.11      19.70       2.62
C      13.10      19.89       1.05
C       9.33      23.26       0.91
N      16.57      17.33       9.25
N      10.14      17.22       1.83
C       9.30      17.52       1.06
C       9.15      19.48       4.22
H      13.68      19.40       6.44
H      14.26      15.20       5.88
H      15.00      12.28      10.18
H      18.17      12.32       7.29
H      18.70      14.55       6.15
H      17.38      15.73       5.98
H      17.25      14.16       5.21
H      13.48      14.05      10.35
H      13.13      14.73       8.74
H      14.03      15.69       9.90
H      17.80      10.33       8.57
H      16.26      10.12       9.43
H      17.64      10.86      10.26
H      16.72      22.83       7.54
H      15.21      21.56      11.35
H      13.64      19.66      11.30
H      15.09      18.66      11.36
H      13.87      18.34      10.11
H      16.58      24.44       9.39
H      17.59      23.51      10.52
H      15.93      23.95      10.97
H      16.67      19.60       5.95
H      17.00      21.34       5.79
H      15.38      20.72       5.51
H      13.00      19.42       4.51
H       8.28      12.79       3.36
H      11.88      11.78       1.26
H      13.74      13.21       1.28
H      13.84      14.16       2.79
H      13.39      14.96       1.30
H       8.28      14.67       4.83
H       8.49      16.01       3.70
H       9.70      15.73       4.96
H      10.12      10.11       1.47
H       8.68      10.99       0.92
H       8.76      10.40       2.59
H      11.71      22.05       0.24
H       8.37      21.71       2.90
H      13.27      18.84       1.30
H      13.93      20.48       1.46
H      13.14      20.01      -0.04
H      10.00      23.77       0.20
H       9.04      23.98       1.69
H       8.41      22.98       0.37
H       9.13      18.39       4.08
H       8.11      19.83       4.30
H       9.64      19.66       5.19
C      17.30      17.66      10.12
C      15.67      17.29       8.20
C      15.06      18.51       7.80
C      14.18      18.47       6.72
C      13.92      17.30       5.99
C      14.53      16.11       6.43
C      15.38      16.07       7.53
C      15.88      14.74       7.99
C      15.16      14.07       9.00
C      15.57      12.80       9.41
C      16.68      12.16       8.82
C      17.34      12.82       7.78
C      16.94      14.09       7.33
C      17.61      14.67       6.11
C      13.89      14.67       9.54
C      17.12      10.80       9.29
C      15.38      19.82       8.42
C      15.96      20.83       7.60
C      16.28      22.06       8.18
C      16.07      22.34       9.53
C      15.44      21.36      10.30
C      15.08      20.11       9.77
C      14.38      19.13      10.68
C      16.56      23.63      10.13
C      16.27      20.60       6.14
C      13.04      17.25       4.81
C      12.61      18.45       4.20
C      11.66      18.44       3.19
