99

N      16.58       6.83       2.18
N      10.16       6.72       9.60
C      17.32       7.15       1.31
C      15.69       6.79       3.24
C      15.08       8.01       3.64
C      14.20       7.97       4.72
C      13.94       6.80       5.45
C      14.55       5.61       5.01
C      15.40       5.57       3.91
C      15.90       4.25       3.46
C      15.18       3.57       2.44
C      15.59       2.30       2.03
C      16.69       1.66       2.62
C      17.35       2.32       3.66
C      16.96       3.59       4.11
C      17.63       4.17       5.33
C      13.91       4.17       1.90
C      17.13       0.30       2.15
C      15.40       9.32       3.02
C      15.98      10.33       3.84
C      16.30      11.56       3.26
C      16.10      11.83       1.90
C      15.48      10.86       1.13
C      15.11       9.61       1.66
C      14.40       8.63       0.76
C      16.59      13.13       1.30
C      16.28      10.11       5.30
C      13.05       6.75       6.63
C      12.63       7.96       7.23
C      11.67       7.95       8.24
C      11.17       6.69       8.66
C      11.67       5.48       8.11
C      12.63       5.49       7.10
C      11.09       4.17       8.53
C       9.80       3.81       8.08
C       9.27       2.57       8.44
C       9.98       1.66       9.24
C      11.28       2.01       9.62
C      11.85       3.24       9.27
C      13.29       3.54       9.59
C       9.04       4.73       7.17
C       9.36       0.36       9.66
C      11.80       9.89       9.84
C      11.22      11.05      10.38
C      10.00      11.54       9.92
C       9.35      10.85       8.89
C       9.89       9.70       8.33
C      11.13       9.21       8.81
C      13.12       9.40      10.38
C       9.35      12.77      10.52
C       9.16       8.99       7.21
C       9.32       7.02      10.38
H      13.70       8.90       4.99
H      14.29       4.71       5.57
H      15.02       1.78       1.26
H      18.19       1.82       4.16
H      18.72       4.05       5.30
H      17.40       5.24       5.46
H      17.27       3.66       6.24
H      13.49       3.56       1.09
H      13.16       4.24       2.70
H      14.06       5.20       1.53
H      17.83      -0.17       2.87
H      16.28      -0.38       2.02
H      17.65       0.36       1.18
H      16.74      12.33       3.90
H      15.25      11.05       0.08
H      13.65       9.16       0.15
H      15.11       8.17       0.06
H      13.91       7.83       1.32
H      16.63      13.93       2.05
H      17.61      13.00       0.90
H      15.95      13.46       0.48
H      16.69       9.11       5.50
H      17.00      10.86       5.66
H      15.39      10.22       5.93
H      13.02       8.92       6.92
H       8.29       2.29       8.07
H      11.88       1.30      10.19
H      13.74       2.73      10.18
H      13.86       3.67       8.66
H      13.39       4.48      10.15
H       8.29       4.18       6.59
H       8.50       5.52       7.73
H       9.72       5.23       6.47
H      10.12      -0.37       9.98
H       8.68       0.51      10.52
H       8.77      -0.09       8.85
H      11.73      11.56      11.20
H       8.39      11.22       8.54
H      13.29       8.34      10.13
H      13.95       9.98       9.96
H      13.16       9.51      11.48
H      10.01      13.27      11.25
H       9.08      13.50       9.75
H       8.42      12.50      11.04
H       9.15       7.90       7.35
H       8.13       9.34       7.14
H       9.66       9.17       6.25
