618

C       9.58      11.89      40.65
C      10.88      11.34      40.51
C      11.61      12.56       1.02
C      10.49      13.42       0.90
C      10.34      14.48       1.83
C      11.12      14.59       3.01
C      12.11      13.60       3.19
C      12.41      12.67       2.18
C      11.17      10.59      39.35
C      10.20      10.40      38.34
C       8.86      10.78      38.54
C       8.58      11.51      39.72
C       8.20      12.71       0.90
C       7.08      13.57       1.02
C       7.81      14.80      40.51
C       9.10      14.24      40.65
C       7.52      15.55      39.35
C       8.48      15.73      38.34
C       9.83      15.35      38.54
C      10.11      14.62      39.72
C       8.35      11.65       1.83
C       7.57      11.55       3.01
C       6.58      12.54       3.19
C       6.27      13.47       2.18
C       9.34      13.07      41.57
C       6.77      14.58      41.56
C      11.92      11.55      41.56
C       7.81      10.64      37.56
C      10.73      15.56       3.99
C      10.88      15.49      37.56
C       7.95      10.58       4.00
C      -5.08      13.44      12.92
C      -6.21      12.60      12.78
C      -5.51      11.36      14.88
C      -4.21      11.90      14.76
C      -3.21      11.50      15.69
C      -3.51      10.77      16.87
C      -4.86      10.41      17.06
C      -5.82      10.61      16.04
C      -7.00      12.72      11.62
C      -6.68      13.65      10.61
C      -5.67      14.63      10.81
C      -4.90      14.51      11.99
C      -3.67      14.24      14.76
C      -2.37      14.78      14.88
C      -1.67      13.53      12.78
C      -2.80      12.69      12.92
C      -0.88      13.41      11.62
C      -1.20      12.48      10.61
C      -2.21      11.50      10.81
C      -2.97      11.63      11.99
C      -4.67      14.63      15.69
C      -4.37      15.36      16.87
C      -3.02      15.73      17.05
C      -2.06      15.53      16.04
C      -3.94      13.07      13.84
C      -1.34      14.54      13.83
C      -6.54      11.60      13.83
C      -5.27      15.61       9.83
C      -2.47      10.62      17.86
C      -2.61      10.53       9.83
C      -5.41      15.53      17.85
C      16.89       2.36      26.78
C      16.72       3.76      26.65
C      15.29       3.78      28.75
C      15.11       2.38      28.63
C      14.27       1.72      29.56
C      13.78       2.34      30.73
C      14.14       3.69      30.92
C      14.80       4.42      29.91
C      17.22       4.39      25.48
C      17.86       3.64      24.47
C      18.21       2.28      24.67
C      17.72       1.68      25.86
C      16.87       0.75      28.62
C       3.40      22.36      28.75
C       1.97      22.38      26.65
C      15.09       0.77      26.78
C       1.47      21.75      25.48
C       0.83      22.50      24.48
C      13.77       0.85      24.67
C      14.26       1.45      25.86
C      17.71       1.41      29.55
C      18.19       0.79      30.74
C       4.55      22.44      30.92
C       3.89      21.71      29.90
C      15.99       1.56      27.70
C       2.68      21.59      27.69
C      16.01       4.55      27.70
C      18.85       1.45      23.69
C      13.12       1.52      31.72
C      13.12       1.68      23.69
C      18.84       1.61      31.72
C      11.63       2.96      33.17
C      11.33       4.08      32.37
C      10.81       5.29      32.91
C      10.35       5.30      34.27
C      10.54       4.13      35.04
C      11.20       3.01      34.51
C       9.66       6.41      34.88
C       8.67       7.12      34.17
C       8.03       8.24      34.73
C       8.27       8.64      36.07
C       9.12       7.81      36.84
C       9.84       6.76      36.24
C      12.73      16.14       5.44
C      13.85      15.84       4.64
C      15.16      15.69       5.18
C      15.40      16.08       6.54
C      14.29      16.51       7.31
C      12.99      16.50       6.79
C      16.70      16.13       7.15
C      -8.75      16.62       6.44
C      -7.46      16.61       7.00
C      -7.24      16.20       8.34
C      -8.38      15.89       9.11
C      16.92      15.79       8.51
C      -2.97       8.60      19.31
C      -3.79       7.78      18.50
C      22.00       6.72      19.05
C      22.21       6.32      20.41
C      -3.43       7.07      21.17
C      -2.79       8.20      20.65
C      21.60       5.17      21.01
C      21.47       3.95      20.30
C      20.82       2.84      20.86
C      20.35       2.85      22.20
C      20.65       3.99      22.97
C      21.20       5.15      22.38
C      20.34       0.17      33.17
C       7.36      22.05      32.37
C       7.88      20.85      32.91
C       8.34      20.83      34.27
C       8.15      22.01      35.04
C      20.78       0.12      34.52
C       9.03      19.73      34.88
C      10.02      19.02      34.17
C      10.66      17.90      34.73
C      10.42      17.49      36.07
C       9.57      18.32      36.84
C       8.85      19.37      36.25
C       5.96      10.00       5.45
C       4.84      10.30       4.64
C       3.53      10.45       5.19
C       3.29      10.06       6.55
C       4.40       9.63       7.31
C       5.70       9.64       6.79
C       1.99      10.01       7.15
C       0.87       9.51       6.44
C      -0.41       9.52       7.00
C      -0.64       9.93       8.34
C       0.50      10.25       9.11
C       1.77      10.35       8.52
C      -4.91      17.54      19.30
C      -4.09      18.36      18.50
C      -3.31      19.42      19.05
C      -3.52      19.82      20.41
C      -4.44      19.07      21.17
C      -5.09      17.94      20.65
C      -2.91      20.97      21.02
C      -2.78      22.18      20.30
C      11.15       0.29      20.86
C      11.62       0.28      22.20
C      -1.96      22.14      22.97
C      -2.51      20.99      22.38
C       9.58      11.89      22.65
C      10.88      11.34      22.51
C      11.61      12.56      24.61
C      10.49      13.42      24.49
C      10.34      14.48      25.42
C      11.12      14.59      26.60
C      12.11      13.60      26.78
C      12.41      12.67      25.77
C      11.17      10.59      21.35
C      10.20      10.40      20.34
C       8.86      10.78      20.54
C       8.58      11.51      21.72
C       8.20      12.71      24.49
C       7.08      13.57      24.61
C       7.81      14.80      22.51
C       9.10      14.24      22.65
C       7.52      15.55      21.35
C       8.48      15.73      20.34
C       9.83      15.35      20.54
C      10.11      14.62      21.72
C       8.35      11.65      25.42
C       7.57      11.55      26.60
C       6.58      12.54      26.79
C       6.27      13.47      25.77
C       9.34      13.07      23.57
C       6.77      14.58      23.56
C      11.92      11.55      23.56
C       7.81      10.64      19.56
C      10.73      15.56      27.59
C      10.88      15.49      19.56
C       7.95      10.58      27.59
C      -5.08      13.44      36.51
C      -6.21      12.60      36.38
C      -5.51      11.36      38.48
C      -4.21      11.90      38.36
C      -3.21      11.50      39.29
C      -3.51      10.77      40.47
C      -4.86      10.41      40.65
C      -5.82      10.61      39.64
C      -7.00      12.72      35.21
C      -6.68      13.65      34.20
C      -5.67      14.63      34.40
C      -4.90      14.51      35.59
C      -3.67      14.24      38.35
C      -2.37      14.78      38.48
C      -1.67      13.53      36.38
C      -2.80      12.69      36.51
C      -0.88      13.41      35.21
C      -1.20      12.48      34.21
C      -2.21      11.50      34.40
C      -2.97      11.63      35.59
C      -4.67      14.63      39.28
C      -4.37      15.36      40.46
C      -3.02      15.73      40.65
C      -2.06      15.53      39.64
C      -3.94      13.07      37.43
C      -1.34      14.54      37.42
C      -6.54      11.60      37.42
C      -5.27      15.61      33.42
C      -2.47      10.62      41.45
C      -2.61      10.53      33.42
C      -5.41      15.53      41.45
C      16.89       2.36       8.78
C      16.72       3.76       8.65
C      15.29       3.78      10.75
C      15.11       2.38      10.63
C      14.27       1.72      11.56
C      13.78       2.34      12.73
C      14.14       3.69      12.92
C      14.80       4.42      11.91
C      17.22       4.39       7.48
C      17.86       3.64       6.47
C      18.21       2.28       6.67
C      17.72       1.68       7.86
C      16.87       0.75      10.62
C       3.40      22.36      10.75
C       1.97      22.38       8.65
C      15.09       0.77       8.78
C       1.47      21.75       7.48
C       0.83      22.50       6.48
C      13.77       0.85       6.67
C      14.26       1.45       7.86
C      17.71       1.41      11.55
C      18.19       0.79      12.74
C       4.55      22.44      12.92
C       3.89      21.71      11.90
C      15.99       1.56       9.70
C       2.68      21.59       9.69
C      16.01       4.55       9.70
C      18.85       1.45       5.69
C      13.12       1.52      13.72
C      13.12       1.68       5.69
C      18.84       1.61      13.72
C      11.63       2.96      15.17
C      11.33       4.08      14.37
C      10.81       5.29      14.91
C      10.35       5.30      16.27
C      10.54       4.13      17.04
C      11.20       3.01      16.51
C       9.66       6.41      16.88
C       8.67       7.12      16.17
C       8.03       8.24      16.73
C       8.27       8.64      18.07
C       9.12       7.81      18.84
C       9.84       6.76      18.24
C      12.73      16.14      29.03
C      13.85      15.84      28.23
C      15.16      15.69      28.78
C      15.40      16.08      30.14
C      14.29      16.51      30.90
C      12.99      16.50      30.38
C      16.70      16.13      30.74
C      -8.75      16.62      30.03
C      -7.46      16.61      30.59
C      -7.24      16.20      31.93
C      -8.38      15.89      32.70
C      16.92      15.79      32.11
C      -2.97       8.60       1.31
C      -3.79       7.78       0.50
C      22.00       6.72       1.05
C      22.21       6.32       2.41
C      -3.43       7.07       3.17
C      -2.79       8.20       2.65
C      21.60       5.17       3.01
C      21.47       3.95       2.30
C      20.82       2.84       2.86
C      20.35       2.85       4.20
C      20.65       3.99       4.97
C      21.20       5.15       4.38
C      20.34       0.17      15.17
C       7.36      22.05      14.37
C       7.88      20.85      14.91
C       8.34      20.83      16.27
C       8.15      22.01      17.04
C      20.78       0.12      16.52
C       9.03      19.73      16.88
C      10.02      19.02      16.17
C      10.66      17.90      16.73
C      10.42      17.49      18.07
C       9.57      18.32      18.84
C       8.85      19.37      18.25
C       5.96      10.00      29.04
C       4.84      10.30      28.24
C       3.53      10.45      28.78
C       3.29      10.06      30.14
C       4.40       9.63      30.91
C       5.70       9.64      30.38
C       1.99      10.01      30.75
C       0.87       9.51      30.03
C      -0.41       9.52      30.60
C      -0.64       9.93      31.93
C       0.50      10.25      32.70
C       1.77      10.35      32.11
C      -4.91      17.54       1.30
C      -4.09      18.36       0.50
C      -3.31      19.42       1.05
C      -3.52      19.82       2.41
C      -4.44      19.07       3.17
C      -5.09      17.94       2.65
C      -2.91      20.97       3.02
C      -2.78      22.18       2.30
C      11.15       0.29       2.86
C      11.62       0.28       4.20
C      -1.96      22.14       4.97
C      -2.51      20.99       4.38
H       6.07      12.60       4.07
H       5.51      14.14       2.33
H       6.56      15.88      39.19
H       8.19      16.14      37.45
H      11.05      14.24      39.87
H       9.14      11.02       1.69
H       9.55      15.12       1.69
H      12.62      13.54       4.07
H      13.17      12.00       2.33
H       7.64      11.89      39.87
H      12.13      10.25      39.19
H      10.50      10.00      37.45
H       5.84      14.27      41.08
H       6.59      15.55       0.44
H      12.84      11.87      41.08
H      12.10      10.59       0.44
H      -2.71      16.15      17.93
H      -1.10      15.86      16.19
H      -0.11      14.07      11.46
H      -0.70      12.54       9.73
H      -3.77      11.00      12.14
H      -5.61      14.27      15.55
H      -2.27      11.87      15.56
H      -5.17       9.99      17.94
H      19.79      10.28      16.19
H      -4.11      15.13      12.14
H      18.80      12.07      11.46
H      -7.18      13.60       9.73
H      -1.15      15.50      13.35
H      -0.42      14.21      14.31
H      19.84      10.63      13.35
H      19.10      11.92      14.31
H       4.75      21.97      31.80
H       3.70      20.72      30.06
H       1.66      20.76      25.32
H       0.62      22.03      23.59
H      14.12       2.45      26.00
H      17.87       2.41      29.42
H      14.11       0.71      29.42
H      13.93       4.17      31.80
H      14.99       5.41      30.06
H      17.86       0.68      26.00
H      17.03       5.38      25.32
H      18.06       4.11      23.59
H       3.42      20.94      27.21
H       1.93      20.95      28.17
H      15.27       5.19      27.21
H      16.76       5.19      28.18
H      10.20       4.06      36.00
H      11.34       2.20      35.13
H       8.42       6.86      33.21
H       7.37       8.76      34.14
H       9.23       7.97      37.84
H      11.54       4.04      31.37
H      10.51       6.25      36.83
H      11.19       6.35      31.21
H      10.69       7.28      32.48
H       6.79       9.96      36.02
H      12.00       1.02      33.26
H      14.40      16.83       8.27
H      12.22      16.78       7.40
H      -8.86      16.97       5.48
H      -6.68      16.92       6.41
H      -8.29      15.72      10.11
H      13.71      15.68       3.64
H      16.14      15.47       9.10
H      15.88      14.81       3.49
H      16.93      14.79       4.76
H      -5.36      16.83       8.29
H      10.86      16.78       5.53
H      -3.21       6.80      22.14
H      -2.16       8.72      21.27
H      21.83       3.87      19.34
H      20.70       2.01      20.27
H      20.46       4.01      23.97
H      -3.86       7.98      17.51
H      21.31       5.98      22.96
H      20.88       6.53      17.34
H      20.33       5.63      18.61
H      19.95       0.91      22.15
H      -1.48       9.90      19.40
H       8.49      22.07      36.00
H      20.63       0.93      35.13
H      10.27      19.28      33.21
H      11.32      17.38      34.15
H       9.46      18.16      37.84
H       7.15      22.09      31.37
H       8.18      19.88      36.83
H       7.50      19.78      31.21
H       8.00      18.86      32.48
H      11.90      16.18      36.03
H      19.96       2.11      33.26
H       4.29       9.30       8.27
H       6.47       9.36       7.41
H       0.98       9.16       5.48
H      -1.19       9.21       6.41
H       0.41      10.42      10.11
H       4.98      10.46       3.65
H       2.55      10.67       9.10
H       2.80      11.32       3.48
H       1.75      11.34       4.75
H      -2.52       9.30       8.29
H       7.83       9.36       5.54
H      -4.67      19.33      22.14
H      -5.71      17.41      21.27
H      -3.14      22.27      19.35
H      11.28       1.12      20.28
H      -1.77      22.13      23.98
H      -4.02      18.16      17.50
H      -2.62      20.16      22.97
H      -2.18      19.60      17.35
H      -1.63      20.50      18.62
H      12.01       2.22      22.16
H      -6.40      16.24      19.39
H       6.07      12.60      27.67
H       5.51      14.14      25.92
H       6.56      15.88      21.19
H       8.19      16.14      19.45
H      11.05      14.24      21.87
H       9.14      11.02      25.29
H       9.55      15.12      25.28
H      12.62      13.54      27.66
H      13.17      12.00      25.92
H       7.64      11.89      21.87
H      12.13      10.25      21.19
H      10.50      10.00      19.45
H       5.84      14.27      23.08
H       6.59      15.55      24.04
H      12.84      11.87      23.08
H      12.10      10.59      24.04
H      -2.71      16.15      41.53
H      -1.10      15.86      39.79
H      -0.11      14.07      35.05
H      -0.70      12.54      33.32
H      -3.77      11.00      35.73
H      -5.61      14.27      39.15
H      -2.27      11.87      39.15
H      -5.17       9.99      41.53
H      19.79      10.28      39.79
H      -4.11      15.13      35.73
H      18.80      12.07      35.05
H      -7.18      13.60      33.32
H      -1.15      15.50      36.94
H      -0.42      14.21      37.90
H      19.84      10.63      36.94
H      19.10      11.92      37.90
H       4.75      21.97      13.80
H       3.70      20.72      12.06
H       1.66      20.76       7.32
H       0.62      22.03       5.59
H      14.12       2.45       8.00
H      17.87       2.41      11.42
H      14.11       0.71      11.42
H      13.93       4.17      13.80
H      14.99       5.41      12.06
H      17.86       0.68       8.00
H      17.03       5.38       7.32
H      18.06       4.11       5.59
H       3.42      20.94       9.21
H       1.93      20.95      10.17
H      15.27       5.19       9.21
H      16.76       5.19      10.18
H      10.20       4.06      18.00
H      11.34       2.20      17.13
H       8.42       6.86      15.21
H       7.37       8.76      16.14
H       9.23       7.97      19.84
H      11.54       4.04      13.37
H      10.51       6.25      18.83
H      11.19       6.35      13.21
H      10.69       7.28      14.48
H       6.79       9.96      18.02
H      12.00       1.02      15.26
H      14.40      16.83      31.86
H      12.22      16.78      31.00
H      -8.86      16.97      29.07
H      -6.68      16.92      30.00
H      -8.29      15.72      33.70
H      13.71      15.68      27.23
H      16.14      15.47      32.69
H      15.88      14.81      27.08
H      16.93      14.79      28.35
H      -5.36      16.83      31.88
H      10.86      16.78      29.13
H      -3.21       6.80       4.14
H      -2.16       8.72       3.27
H      21.83       3.87       1.34
H      20.70       2.01       2.27
H      20.46       4.01       5.97
H      -3.86       7.98      41.10
H      21.31       5.98       4.96
H      20.88       6.53      40.94
H      20.33       5.63       0.61
H      19.95       0.91       4.15
H      -1.48       9.90       1.40
H       8.49      22.07      18.00
H      20.63       0.93      17.13
H      10.27      19.28      15.21
H      11.32      17.38      16.15
H       9.46      18.16      19.84
H       7.15      22.09      13.37
H       8.18      19.88      18.83
H       7.50      19.78      13.21
H       8.00      18.86      14.48
H      11.90      16.18      18.03
H      19.96       2.11      15.26
H       4.29       9.30      31.87
H       6.47       9.36      31.00
H       0.98       9.16      29.08
H      -1.19       9.21      30.01
H       0.41      10.42      33.71
H       4.98      10.46      27.24
H       2.55      10.67      32.70
H       2.80      11.32      27.08
H       1.75      11.34      28.34
H      -2.52       9.30      31.89
H       7.83       9.36      29.13
H      -4.67      19.33       4.14
H      -5.71      17.41       3.27
H      -3.14      22.27       1.35
H      11.28       1.12       2.28
H      -1.77      22.13       5.98
H      -4.02      18.16      41.10
H      -2.62      20.16       4.97
H      -2.18      19.60      40.94
H      -1.63      20.50       0.62
H      12.01       2.22       4.16
H      -6.40      16.24       1.39
N      10.83       6.39      32.11
N       7.60       9.75      36.54
N      12.24       1.81      32.72
N      16.10      15.12       4.38
N      -5.94      16.24       8.81
N      11.42      16.19       5.00
N      21.03       6.19      18.25
N      19.73       1.71      22.67
N      -2.28       9.71      18.86
N       7.86      19.75      32.11
N      11.09      16.39      36.54
N      19.73       1.32      32.73
N       2.59      11.02       4.39
N      -1.94       9.90       8.81
N       7.27       9.96       5.00
N      -2.34      19.95      18.25
N      12.24       1.42      22.68
N      -5.60      16.43      18.86
N      10.83       6.39      14.11
N       7.60       9.75      18.54
N      12.24       1.81      14.72
N      16.10      15.12      27.98
N      -5.94      16.24      32.40
N      11.42      16.19      28.59
N      21.03       6.19       0.25
N      19.73       1.71       4.67
N      -2.28       9.71       0.86
N       7.86      19.75      14.11
N      11.09      16.39      18.54
N      19.73       1.32      14.73
N       2.59      11.02      27.98
N      -1.94       9.90      32.41
N       7.27       9.96      28.60
N      -2.34      19.95       0.25
N      12.24       1.42       4.68
N      -5.60      16.43       0.86
O       9.42      15.90       3.98
O       6.87      11.62      37.59
O      11.82      14.51      37.59
O       9.27      10.24       3.98
O      -1.53      11.59      17.85
O      -3.95      15.93       9.86
O      -3.92      10.20       9.86
O      -6.36      14.55      17.84
O      13.49       0.21      31.70
O      18.47       0.15      23.72
O      13.49       2.99      23.73
O      18.48       2.91      31.71
O       9.42      15.90      27.57
O       6.87      11.62      19.59
O      11.82      14.51      19.59
O       9.27      10.24      27.58
O      -1.53      11.59      41.44
O      -3.95      15.93      33.46
O      -3.92      10.20      33.46
O      -6.36      14.55      41.44
O      13.49       0.21      13.70
O      18.47       0.15       5.72
O      13.49       2.99       5.73
O      18.48       2.91      13.71
