22

O      10.03       6.12       3.26
Cr       7.38       4.65       5.22
Cr       9.07       4.61       2.20
O       8.29       6.00       1.08
Cr       5.63       4.64       2.23
O       6.07       6.13       0.88
O       5.06       6.05       3.48
O       7.36       4.64       3.22
C       9.19       2.54       4.10
C       7.22       2.69       0.60
C       5.12       2.77       4.65
C       9.15       6.70       4.01
O       5.99       3.16       5.51
C       7.17       6.70       1.22
O       8.73       3.24       5.09
C       5.06       6.46       4.72
O      10.01       3.11       3.26
O       8.28       3.21       1.07
O       6.05       3.12       0.87
O       5.05       3.26       3.47
O       6.00       6.17       5.52
O       8.74       6.03       5.10
