366

C      21.25      21.55       0.16
C      11.09     -10.34      17.44
C       6.38       6.68       9.00
C       4.65       5.64      10.34
C      -0.06      21.55       1.03
C       4.65      16.85       8.13
C       2.16      11.21      16.77
C       2.74      10.00      16.31
C       3.82      10.01      15.41
C       4.34      11.21      14.87
C       3.82      12.42      15.42
C       2.75      12.42      16.33
C       5.52      11.21      13.89
C       6.69      11.21      14.87
C       7.21      12.42      15.41
C       8.29      12.42      16.31
C       8.86      11.21      16.77
C       8.28      10.00      16.33
C       7.21      10.01      15.42
C       5.52      10.04      12.91
C       5.51      12.39      12.91
C       6.72      12.91      12.37
C       6.72      13.99      11.47
C       5.51      14.56      11.01
C       4.31      13.98      11.45
C       4.31      12.90      12.36
C       4.31       9.51      12.37
C       4.31       8.43      11.47
C       5.52       7.86      11.01
C       6.73       8.45      11.45
C       6.72       9.52      12.36
C       2.16       0.00       1.70
C       2.75       1.21       2.14
C       3.82       1.21       3.05
C       4.34       0.00       3.60
C       3.82      -1.20       3.06
C       2.74      -1.21       2.16
C       5.52       0.00       4.58
C       6.69       0.00       3.60
C       7.21      -1.20       3.05
C       8.28      -1.21       2.14
C       8.87       0.00       1.70
C       8.29       1.21       2.16
C       7.21       1.21       3.06
C       5.51       1.18       5.56
C       5.52      -1.17       5.56
C       6.72      -1.69       6.11
C       6.73      -2.76       7.02
C       5.52      -3.35       7.46
C       4.31      -2.78       7.01
C       4.31      -1.70       6.10
C       4.31       1.70       6.11
C       4.31       2.77       7.02
C       5.51       3.35       7.46
C       6.72       2.78       7.00
C       6.72       1.70       6.10
C       1.04       0.00       0.81
C     -10.22     -10.34      18.31
C       9.99      11.21      17.66
C      12.20       0.87       0.16
C      11.09       0.87       1.03
C       9.99       0.01       0.81
C      -1.17      10.35      18.31
C      -0.06      10.35      17.44
C       1.04      11.21      17.66
C       6.38       5.57       8.13
C       5.52       4.47       8.35
C       4.65       4.53       9.47
C       5.51       6.74      10.12
C       4.65      15.74       9.00
C       5.51      -4.47       8.35
C       6.38      -4.52       9.47
C       6.38      -5.63      10.34
C       5.52      15.68      10.12
C      10.04      10.35       8.78
C      11.09      12.08       7.44
C      -4.83      -4.52      17.62
C       4.65       5.64       0.34
C      11.15      10.34       9.64
C      -6.56       5.64      16.75
C       2.16      11.21       6.77
C       2.74      10.00       6.31
C       3.82      10.01       5.41
C       4.34      11.21       4.87
C       3.82      12.42       5.42
C       2.75      12.42       6.33
C       5.52      11.21       3.89
C       6.69      11.21       4.87
C       7.21      12.42       5.41
C       8.29      12.42       6.31
C       8.86      11.21       6.77
C       8.28      10.00       6.33
C       7.21      10.01       5.42
C       5.52      10.04       2.91
C       5.51      12.39       2.91
C       6.72      12.91       2.37
C       6.72      13.99       1.47
C       5.51      14.56       1.01
C       4.31      13.98       1.45
C       4.31      12.90       2.36
C       4.31       9.51       2.37
C       4.31       8.43       1.47
C       5.52       7.86       1.01
C       6.73       8.45       1.45
C       6.72       9.52       2.36
C      13.37      11.21      10.31
C      13.96      12.42      10.76
C      15.03      12.42      11.67
C      -6.87      11.21      12.22
C      15.02      10.01      11.68
C      13.94      10.00      10.77
C      -5.69      11.21      13.20
C      -4.52      11.21      12.22
C      -4.00      10.01      11.67
C      -2.93      10.00      10.76
C      -2.34      11.21      10.31
C      -2.91      12.42      10.77
C      -3.99      12.42      11.68
C      -5.69      12.39      14.18
C      -5.69      10.04      14.18
C      -4.49       9.52      14.73
C      -4.48       8.45      15.63
C      -5.69       7.86      16.08
C      -6.90       8.43      15.62
C      -6.90       9.51      14.72
C      -6.90      12.90      14.73
C      -6.90      -8.44      15.63
C      -5.69      -7.85      16.08
C      -4.48      -8.43      15.62
C      -4.49      12.91      14.72
C      12.25      11.21       9.43
C      12.20      12.07       8.31
C       9.99      11.21       7.66
C       0.99      12.08       8.78
C      -0.12      12.08       9.64
C      -1.22      11.21       9.42
C      -1.17      10.35       8.31
C      -0.06      10.35       7.44
C       1.04      11.21       7.66
C      -4.83      -5.63      16.75
C      -5.69      -6.73      16.97
C      -6.56      -6.68      18.09
C       5.51       6.74       0.12
C      -6.56       4.53      17.62
C      -5.69       6.74      16.97
C      -4.83       6.68      18.09
C       6.38      16.78       0.34
C       5.52      15.68       0.12
C      -1.17      -0.86      17.39
C      -0.12       0.87      16.06
C      17.59      -4.52       7.62
C      15.86      16.85       8.95
C      -0.06      -0.86      18.26
C      15.86       5.64       6.75
C      -9.04       0.00      15.39
C      -8.47      -1.20      14.93
C      -7.39      -1.20      14.03
C      -6.87       0.00      13.48
C      -7.38       1.21      14.03
C      -8.46       1.21      14.94
C      -5.69       0.00      12.50
C      -4.52       0.00      13.49
C      -3.99       1.21      14.03
C      -2.91       1.21      14.93
C      -2.34       0.00      15.39
C      -2.93      -1.21      14.94
C      -4.00      -1.20      14.03
C      -5.69      -1.17      11.52
C      -5.69       1.18      11.52
C      -4.49       1.70      10.98
C      -4.48       2.78      10.08
C      -5.69       3.35       9.62
C      15.51       2.77      10.07
C      15.52       1.69      10.98
C      15.52      -1.70      10.98
C      15.52      -2.78      10.08
C      -5.69      -3.35       9.62
C      -4.48      -2.76      10.07
C      -4.49      -1.69      10.98
C      13.37      11.21       0.31
C      13.96      12.42       0.76
C      15.03      12.42       1.67
C      15.55      11.21       2.22
C      15.02      10.01       1.68
C      13.94      10.00       0.77
C      16.72      11.21       3.20
C      17.90      11.21       2.22
C      18.41      10.01       1.67
C      19.49      10.00       0.76
C      20.07      11.21       0.31
C      19.50      12.42       0.77
C      18.42      12.42       1.68
C      16.72      12.39       4.18
C      16.72      10.04       4.18
C      17.93       9.52       4.73
C      17.93       8.45       5.63
C      16.72       7.86       6.08
C      15.52       8.43       5.62
C      15.52       9.51       4.72
C      15.52      12.90       4.73
C      15.51      13.98       5.63
C      16.72      14.56       6.08
C      17.93      13.99       5.62
C      17.93      12.91       4.72
C       1.04       0.00      18.04
C       0.99       0.87      16.92
C      -1.22       0.00      16.28
C     -10.22       0.87      17.39
C      11.09       0.87      18.26
C       9.99       0.01      18.04
C      10.04      -0.86      16.92
C      11.15      -0.86      16.06
C      12.25       0.00      16.28
C      17.59      16.78       6.75
C      16.73      15.68       6.97
C      15.86      15.74       8.09
C      16.72      -4.47       8.73
C      15.86       4.53       7.62
C      16.72       6.74       6.97
C      -4.83       6.68       8.09
C      -4.83       5.57       8.95
C      16.73       4.47       8.73
H       7.63       8.08      11.14
H       8.65       9.10      16.64
H      20.47      20.93       0.38
H       7.00       7.47       8.79
H       7.62      14.34      11.13
H       8.64      -9.10      16.65
H       7.62      12.52      12.64
H       3.40      14.35      11.14
H       3.41      12.51      12.64
H       3.41       9.90      12.64
H       3.41       8.08      11.13
H       7.62       9.91      12.64
H       6.82       9.10      15.14
H       6.82      -9.10      15.13
H       4.21      -9.10      15.14
H       4.20       9.10      15.13
H       2.38       9.10      16.65
H       2.38      -9.09      16.64
H       7.63      -3.13       7.33
H       7.62      -1.30       5.83
H       3.41      -3.13       7.34
H       3.41      -1.31       5.83
H       3.41       1.31       5.83
H       3.40       3.14       7.33
H       7.62       3.13       7.34
H       7.62       1.31       5.83
H       6.82       2.11       3.34
H       8.64       2.11       1.82
H       8.65      20.31       1.83
H       6.82      20.31       3.33
H       4.21      20.31       3.34
H       4.21       2.11       3.33
H       2.38       2.11       1.83
H       2.39      20.31       1.82
H      -9.44      -9.72      18.09
H      -0.07      20.93       1.84
H      11.10      -9.72      16.63
H      -1.95       9.72      18.09
H      11.10       1.49       1.84
H      12.98       1.49       0.38
H      -0.07       9.72      16.63
H       4.03       3.75       9.68
H       7.00       5.59       7.32
H       4.03       5.62      11.15
H       7.00      -3.74       9.68
H       4.03      16.83       7.32
H       4.03      14.95       8.79
H       7.00      -5.62      11.15
H       7.63       8.08       1.14
H       8.65       9.10       6.64
H       9.26       9.72       8.99
H      -4.20      -3.74      17.40
H       7.62      14.34       1.13
H       8.64      13.32       6.65
H       7.62      12.52       2.64
H       3.40      14.35       1.14
H       3.41      12.51       2.64
H       3.41       9.90       2.64
H       3.41       8.08       1.13
H       7.62       9.91       2.64
H       6.82       9.10       5.14
H       6.82      13.32       5.13
H       4.21      13.32       5.14
H       4.20       9.10       5.13
H       2.38       9.10       6.65
H       2.38      13.32       6.64
H      -3.58       8.08      15.95
H      -3.58       9.91      14.45
H      -7.80       8.08      15.96
H      -7.80       9.90      14.44
H      -7.80      12.52      14.45
H      -7.80      -8.07      15.95
H      -3.58      -8.08      15.96
H      -3.58      12.52      14.44
H      -4.38      13.32      11.95
H      -2.56      13.32      10.44
H      -2.56       9.10      10.44
H      -4.39       9.10      11.95
H      -7.00       9.10      11.95
H      -7.00      13.32      11.95
H      13.59      13.32      10.45
H      13.59       9.10      10.44
H      12.98      12.70       8.09
H      11.13       9.72      10.46
H      11.10      12.70       6.63
H      -1.95       9.72       8.09
H      -0.10      12.70      10.46
H       1.77      12.70       8.99
H      -0.07       9.72       6.63
H      -7.18      -7.46      18.30
H      -4.20      -5.62      15.94
H       4.03       5.62       1.15
H      -4.20       7.47      18.30
H      -7.18       5.62      15.94
H      -7.18       3.75      17.40
H       7.00      16.80       1.15
H      -3.58      -3.13       9.75
H      -2.56      -2.11      15.26
H      -1.95      -1.49      17.61
H      -4.20      -3.74       7.40
H      -3.58       3.13       9.74
H      -2.56       2.11      15.27
H      -3.58       1.31      11.26
H      14.61       3.14       9.75
H      14.62       1.31      11.25
H      14.62      -1.31      11.26
H      14.62      -3.13       9.74
H      -3.58      -1.30      11.25
H      -4.39      -2.11      13.76
H      -4.38       2.11      13.75
H      -7.00       2.11      13.76
H      -7.00      -2.10      13.75
H      -8.82      -2.11      15.26
H      -8.83       2.11      15.26
H      18.84       8.08       5.95
H      18.83       9.91       4.45
H      14.62       8.08       5.96
H      14.62       9.90       4.44
H      14.61      12.52       4.45
H      14.61      14.35       5.95
H      -3.58      14.34       5.96
H      18.83      12.52       4.44
H      18.03      13.32       1.95
H      19.85      13.32       0.44
H      19.86       9.10       0.44
H      18.03       9.10       1.95
H      15.41       9.10       1.95
H      15.42      13.32       1.95
H      13.59      13.32       0.45
H      13.59       9.10       0.44
H       1.77       1.49      16.71
H      11.13       9.72       0.46
H      -0.10       1.49      15.25
H       9.26      -1.48      16.71
H      -0.10      12.70       0.46
H      -9.44       1.49      17.61
H      11.13      -1.48      15.24
H      15.24      14.95       8.30
H      18.21      16.80       5.94
H      15.24      -5.59       9.76
H      -4.20       7.47       8.30
H      15.23       5.62       5.94
H      15.24       3.75       7.40
H      -4.20       5.59       9.76
