29

C      16.05      13.12      11.63
C      15.90      12.04      10.62
C      15.34      10.81      11.03
C      15.23       9.77      10.12
C      15.64       9.93       8.79
C      16.16      11.17       8.37
C      16.30      12.21       9.28
C      15.53       8.74       7.89
C      15.35       8.17       5.58
C      14.35       7.15       5.74
C      14.05       6.30       4.69
C      14.72       6.42       3.45
C      15.65       7.47       3.25
C      15.95       8.33       4.29
C      14.49       5.41       2.38
H      15.04      10.68      12.06
H      14.83       8.80      10.43
H      16.48      11.28       7.34
H      16.73      13.17       8.98
H      13.86       7.04       6.70
N      15.79       9.00       6.55
H      16.14       7.56       2.28
H      16.68       9.13       4.17
H      13.32       5.51       4.81
O      16.71      14.17      11.31
O      15.54      12.89      12.78
O      15.33       7.61       8.37
O      15.16       5.55       1.30
O      13.65       4.48       2.64
