24

C       8.60      18.12      18.89
C       8.59      19.53      19.06
C       4.90      20.23      19.51
C       4.89      17.45      18.42
C       9.83      17.41      18.45
C       9.81      20.27      19.52
H       4.98      21.07      20.19
H       3.95      17.62      18.93
H       9.89      16.33      18.47
H       9.82      21.35      19.57
C       7.30      21.59      18.38
C       7.29      16.06      19.51
O       8.35      22.13      17.87
O       8.33      15.50      20.01
O       6.15      22.01      18.08
O       6.13      15.63      19.81
O       3.79      19.95      19.06
O       4.91      16.63      17.51
O      10.77      18.00      17.94
O      10.79      19.68      19.95
C       6.14      19.52      19.08
C       6.15      18.14      18.82
C       7.36      17.42      18.92
C       7.36      20.23      18.99
