18

C       3.36      16.91       5.84
C       4.26      21.61       5.10
O       5.08      15.53       3.43
C       6.10      18.59       3.85
C       5.77      19.93       4.03
H       6.98      18.32       3.28
C       4.63      20.26       4.78
N       7.33      21.78       3.07
H       2.97      19.52       5.95
C       5.75      16.21       4.32
C       3.84      19.25       5.36
N       2.70      16.11       6.35
O       3.30      22.13       4.44
O       6.01      15.63       5.44
C       4.18      17.92       5.20
O       4.58      22.03       6.25
C       5.32      17.59       4.45
C       6.63      20.96       3.50
