24

C       3.15      18.09       9.43
C       3.16      19.51       9.45
C      -0.45      20.15      10.33
C      -0.50      17.51       8.72
C       4.42      17.31       9.32
C       4.46      20.24       9.46
H      -0.46      21.21      10.54
H      -0.45      16.49       8.35
H       4.43      16.39       8.76
H       5.27      19.93       8.80
C       1.82      21.58       8.90
C       1.81      16.05      10.04
O       2.87      22.13       8.40
O       2.85      15.50      10.54
O       0.66      22.00       8.60
O       0.64      15.63      10.34
O      -1.38      19.48      10.77
O      -1.54      18.13       8.55
O       5.44      17.67       9.88
O       4.64      21.17      10.23
C       0.73      19.50       9.67
C       0.71      18.14       9.33
C       1.91      17.41       9.45
C       1.93      20.22       9.49
