24

N       3.20      11.67       1.62
N       2.39      10.65       1.43
N       6.85      16.90       3.20
N       7.87      17.09       2.39
N       1.62      15.32       6.85
N       1.43      16.13       7.87
H       4.90      13.62       1.85
H       4.90      16.67       4.90
N       6.85      15.32       1.62
H       1.85      13.62       4.90
N       7.87      16.13       1.43
N       1.62      11.67       3.20
N       1.43      10.65       2.39
N       3.20      16.90       6.85
N       2.39      17.09       7.87
C       4.46      14.06       2.74
C       4.46      15.78       4.46
C       2.74      14.06       4.46
C       3.31      13.49       3.31
C       2.72      12.29       2.72
C       5.03      15.21       3.31
C       6.23      15.80       2.72
C       3.31      15.21       5.03
C       2.72      15.80       6.23
