24

N       3.20       6.85      16.90
N       2.39       7.87      17.09
N       6.85       1.62      15.32
N       7.87       1.43      16.13
N       1.62       3.20      11.67
N       1.43       2.39      10.65
H       4.90       4.90      16.67
H       4.90       1.85      13.62
N       6.85       3.20      16.90
N       7.87       2.39      17.09
H       1.85       4.90      13.62
N       1.62       6.85      15.32
N       1.43       7.87      16.13
C       4.46       4.46      15.78
N       3.20       1.62      11.67
N       2.39       1.43      10.65
C       4.46       2.74      14.06
C       2.74       4.46      14.06
C       3.31       5.03      15.21
C       2.72       6.23      15.80
C       5.03       3.31      15.21
C       6.23       2.72      15.80
C       3.31       3.31      13.49
C       2.72       2.72      12.29
