24

N      15.32      11.67      16.90
N      16.13      10.65      17.09
N      11.67      16.90      15.32
N      10.65      17.09      16.13
H      13.62      13.62      16.67
N      16.90      15.32      11.67
N      17.09      16.13      10.65
N      11.67      15.32      16.90
N      10.65      16.13      17.09
H      13.62      16.67      13.62
H      16.67      13.62      13.62
N      16.90      11.67      15.32
N      17.09      10.65      16.13
N      15.32      16.90      11.67
N      16.13      17.09      10.65
C      14.06      14.06      15.78
C      14.06      15.78      14.06
C      15.78      14.06      14.06
C      15.21      13.49      15.21
C      15.80      12.29      15.80
C      13.49      15.21      15.21
C      12.29      15.80      15.80
C      15.21      15.21      13.49
C      15.80      15.80      12.29
