36

C       7.20      10.03       7.52
C       2.07       7.45       7.59
H       4.23       6.77       9.03
H       5.15      10.47       5.85
H       8.40       8.73      12.11
H       9.70       6.69      11.55
H       9.08       5.34       9.56
H       7.17       6.02       8.14
H       6.51       9.44      10.68
H       1.97      11.08       6.72
H       0.25      11.77       5.09
H       3.16       7.87       4.10
H       1.42       8.57       2.48
H      -0.03      10.52       2.97
C       5.89       9.35       7.53
C       5.66       8.26       8.39
C       4.43       7.58       8.34
C       3.44       7.96       7.42
C       3.71       9.00       6.50
C       4.94       9.68       6.56
C       2.69       9.43       5.52
C       1.87      10.54       5.79
C       0.89      10.92       4.88
C       0.73      10.22       3.68
C       1.55       9.12       3.40
C       2.53       8.72       4.32
C       6.71       7.78       9.31
C       7.06       8.53      10.44
C       8.13       8.14      11.25
C       8.86       6.98      10.93
C       8.51       6.22       9.82
C       7.43       6.61       9.01
O       8.16       9.50       6.79
O       7.29      11.29       7.95
O       1.34       7.95       8.58
O       1.56       6.57       6.71
