36

H       5.45       5.79       6.28
H       4.59       3.77       7.40
H       2.78       2.51       3.70
C       4.95      -1.50       6.47
H       1.48      -3.00       7.14
H       4.10      -1.14      10.01
C       1.73       2.81       7.87
H       0.94      -4.76       8.79
H       2.00      -4.75      11.02
H       3.62      -2.96      11.61
C       2.49       1.65       7.44
C       3.26       1.70       6.25
C       3.78       0.51       5.72
C       3.76      -0.66       6.49
C       2.90      -0.73       7.61
C       2.25       0.42       8.06
C       2.82      -1.95       8.46
C       1.95      -2.99       8.11
C       1.64      -3.98       9.04
C       2.24      -3.97      10.30
C       3.15      -2.97      10.64
C       3.44      -1.95       9.72
C       3.63       2.99       5.63
C       3.35       3.23       4.27
C       3.84       4.38       3.65
C       4.60       5.30       4.37
C       4.85       5.09       5.73
C       4.36       3.94       6.36
O       5.53      -1.78       5.32
O       5.66      -1.54       7.57
O       1.09       3.52       6.91
O       1.49       2.97       9.20
H       4.39       0.55       4.83
H       1.59       0.37       8.92
H       3.64       4.55       2.60
H       5.01       6.17       3.88
