20

H      10.77       4.01       6.51
O      11.54       4.23       4.16
O      13.78       4.54       4.36
O      15.87       1.68       5.86
O      14.60       1.61       4.02
O      13.27       0.23       9.80
O      11.03      -0.08       9.61
O       8.95       2.78       8.11
O      10.21       2.85       9.94
H      14.05       0.45       7.46
C      12.59       3.08       5.87
C      13.52       2.06       6.14
C      11.48       3.22       6.71
C      12.72       4.03       4.71
C      14.70       1.78       5.26
C      12.22       1.38       8.10
C      11.29       2.40       7.83
C      13.33       1.24       7.25
C      12.10       0.44       9.26
C      10.11       2.68       8.70
