20

H       8.35       1.79       0.47
O       8.09       1.03       2.84
O       7.53      -1.16       2.60
O      10.22      -3.49       1.13
O      10.40      -2.23       2.97
O      11.87      -1.03      -2.84
O      12.44       1.16      -2.60
H      11.61      -1.79      -0.47
O       9.74       3.49      -1.13
O       9.56       2.23      -2.97
C       9.13      -0.10       1.12
C      10.05      -1.13       0.84
C       9.08       1.01       0.27
C       8.17      -0.15       2.28
C      10.23      -2.32       1.73
C      10.84       0.10      -1.12
C       9.91       1.13      -0.84
C      10.89      -1.01      -0.27
C      11.80       0.15      -2.28
C       9.73       2.32      -1.73
