18

H      11.49       5.22      10.46
H      14.31       3.72      13.37
H      15.31       3.67       9.16
C      13.40       4.51       9.67
C      12.47       4.78      10.69
C      12.81       4.46      12.01
C      14.06       3.92      12.33
C      14.94       3.63      11.29
C      14.63       3.91       9.97
C      13.10       4.83       8.24
C      11.82       4.58      13.11
N      16.25       3.04      11.60
O      14.04       4.69       7.39
O      11.91       5.19       7.93
O      10.61       4.90      12.84
O      12.16       4.28      14.31
O      16.58       2.95      12.80
O      16.95       2.67      10.65
