18

H       8.76       9.90       5.17
H       5.12      11.81       3.88
H       5.46       7.50       3.74
C       7.18       8.57       4.51
C       7.76       9.83       4.76
C       7.01      10.98       4.51
C       5.71      10.90       4.01
C       5.19       9.65       3.71
C       5.90       8.48       3.95
C       7.90       7.31       4.89
C       7.53      12.36       4.79
N       3.82       9.59       3.16
O       7.30       6.19       4.69
O       9.05       7.39       5.40
O       8.78      12.60       4.70
O       6.62      13.20       5.07
O       3.24      10.66       2.90
O       3.31       8.46       3.02
