488

C      35.22      34.40      34.53
C      35.93      34.51      33.32
C      35.13      34.14      32.26
C      33.86      33.83      32.75
C      32.83      33.56      31.82
C      33.12      33.58      30.42
C      34.43      33.86      29.98
C      35.44      34.15      30.89
C      17.80      35.06      33.22
C      18.39      35.58      34.37
C      37.14      35.55      35.61
C      35.84      34.95      35.69
C      32.61      34.08      34.97
C      31.92      32.90      35.31
C      32.69      31.80      35.02
C      33.93      32.22      34.51
C      32.35      30.45      35.18
C      33.29      29.48      34.85
C      34.58      29.85      34.39
C      34.88      31.22      34.18
C      31.98      35.31      35.34
C      30.71      35.31      36.00
C      30.07      34.08      36.27
C      30.67      32.87      35.93
C      33.90      33.71      34.25
C      25.51      21.21      21.46
C      26.22      21.09      22.67
C      25.42      21.46      23.72
C      24.15      21.77      23.23
C      23.12      22.04      24.17
C      23.41      22.01      25.57
C      24.72      21.74      26.01
C      25.73      21.45      25.09
C      27.51      20.54      22.77
C      28.10      20.03      21.61
C      27.43      20.07      20.37
C      26.13      20.67      20.29
C      22.90      21.53      21.02
C      22.22      22.71      20.69
C      22.98      23.81      20.98
C      24.22      23.38      21.48
C      22.64      25.16      20.83
C      23.59      26.13      21.16
C      24.88      25.76      21.61
C      25.17      24.38      21.82
C      22.27      20.30      20.64
C      21.00      20.31      19.98
C      20.36      21.54      19.72
C      20.96      22.74      20.06
C      24.19      21.90      21.73
C      30.37      34.35      21.41
C      31.09      33.14      21.30
C      30.28      32.08      21.66
C      29.01      32.57      21.96
C      27.98      31.63      22.22
C      28.27      30.23      22.19
C      29.58      29.79      21.92
C      30.60      30.71      21.64
C      32.37      33.04      20.74
C      32.96      34.19      20.23
C      32.29      35.44      20.26
C      30.99      35.51      20.86
C      27.76      34.79      21.72
C      27.07      35.12      22.90
C      27.83      34.82      24.00
C      29.06      34.31      23.58
C      27.49      34.97      25.35
C      28.43      34.64      26.32
C      29.72      34.19      25.96
C      30.02      33.99      24.58
C      27.13      35.16      20.49
C      25.86      35.83      20.49
C      25.22      36.09      21.72
C      25.81      35.74      22.93
C      29.04      34.07      22.09
C      20.66      21.27      34.59
C      21.37      22.48      34.70
C      20.57      23.53      34.34
C      19.29      23.04      34.02
C      18.27      23.98      33.75
C      18.55      25.38      33.77
C      19.87      25.82      34.04
C      20.88      24.90      34.34
C      22.65      22.58      35.26
C      23.25      21.43      35.77
C      22.58      20.18      35.74
C      21.28      20.11      35.14
C      18.05      20.83      34.27
C      17.36      20.49      33.09
C      18.13      20.79      31.99
C      19.36      21.29      32.42
C      17.78      20.63      30.64
C      18.73      20.96      29.67
C      20.02      21.41      30.04
C      20.32      21.62      31.42
C      17.42      20.46      35.50
C      16.15      19.80      35.50
C      15.50      19.53      34.27
C      16.10      19.87      33.06
C      19.34      21.54      33.90
C       3.42       2.55       2.79
C       2.71       2.43       4.00
C       3.51       2.79       5.06
C       4.78       3.10       4.57
C       5.81       3.38       5.51
C       5.52       3.36       6.90
C       4.21       3.08       7.34
C       3.20       2.79       6.43
C      20.84       1.87       4.10
C      20.24       1.37       2.95
C       1.50       1.41       1.70
C       2.80       2.00       1.63
C       6.03       2.87       2.35
C       6.72       4.05       2.02
C       5.95       5.14       2.32
C       4.72       4.72       2.82
C       6.29       6.50       2.16
C       5.35       7.47       2.50
C       4.06       7.10       2.95
C       3.76       5.72       3.15
C       6.66       1.64       1.98
C       7.93       1.64       1.31
C       8.57       2.87       1.05
C       7.97       4.08       1.39
C       4.74       3.23       3.07
C      13.13      15.73      15.87
C      12.41      15.84      14.66
C      13.22      15.47      13.61
C      14.49      15.17      14.09
C      15.52      14.90      13.15
C      15.23      14.93      11.76
C      13.92      15.20      11.32
C      12.90      15.48      12.24
C      11.13      16.39      14.56
C      10.53      16.90      15.71
C      11.21      16.87      16.96
C      12.51      16.28      17.03
C      15.74      15.42      16.31
C      16.43      14.24      16.65
C      15.66      13.14      16.35
C      14.43      13.56      15.85
C      16.01      11.79      16.52
C      15.07      10.82      16.18
C      13.78      11.18      15.73
C      13.48      12.56      15.52
C      16.37      16.65      16.68
C      17.64      16.65      17.35
C      18.28      15.42      17.62
C      17.68      14.21      17.28
C      14.45      15.05      15.59
C       8.27       2.61      15.93
C       7.56       3.82      16.04
C       8.37       4.87      15.67
C       9.64       4.38      15.36
C      10.67       5.32      15.08
C      10.38       6.71      15.11
C       9.07       7.16      15.38
C       8.06       6.24      15.67
C       6.28       3.92      16.59
C       5.68       2.77      17.10
C       6.35       1.53      17.07
C       7.65       1.45      16.47
C      10.88       2.16      15.61
C      11.57       1.82      14.43
C      10.80       2.12      13.33
C       9.57       2.62      13.75
C      11.14       1.96      11.98
C      10.20       2.29      11.01
C       8.91       2.75      11.37
C       8.62       2.96      12.75
C      11.51       1.80      16.83
C      12.79       1.13      16.84
C      13.42       0.86      15.60
C      12.82       1.20      14.40
C       9.60       2.88      15.24
C      17.98      15.68       2.74
C      17.27      14.47       2.63
C      18.07      13.41       2.99
C      19.35      13.90       3.30
C      20.37      12.96       3.57
C      20.09      11.57       3.54
C      18.77      11.12       3.27
C      17.76      12.04       2.98
C      15.99      14.37       2.07
C      15.39      15.52       1.56
C      16.06      16.77       1.59
C      17.36      16.84       2.19
C      20.59      16.12       3.06
C      21.28      16.46       4.24
C      20.51      16.15       5.34
C      19.28      15.65       4.91
C      20.85      16.32       6.69
C      19.91      15.98       7.66
C      18.62      15.53       7.29
C      18.33      15.32       5.91
C      21.22      16.49       1.83
C      22.49      17.15       1.83
C      23.13      17.42       3.06
C      22.53      17.08       4.27
C      19.31      15.40       3.42
C      18.97       1.15       0.23
C      27.78       0.30      36.89
C      37.81      36.27      36.65
C      19.66      35.81      37.08
C      10.86      36.66       0.43
C       0.82       0.69       0.66
C       9.27      17.14      18.43
C      27.78      17.99      19.10
C      28.10      19.35      19.33
C      29.38      19.81      18.90
C      10.86      18.95      18.23
C      10.54      17.59      17.99
C      23.83       0.05      17.34
C      32.63      36.71      18.19
C      32.96      36.48      19.55
C      14.81      36.91      20.00
C       6.01       0.26      19.15
C       5.68       0.49      17.79
C      14.12      18.24       1.34
C      13.21      18.91       0.49
C      23.25      19.15      36.45
C      24.52      18.71      36.00
C      25.43      18.04      36.85
C      15.39      17.81       0.88
C      19.57      18.14      17.33
C      20.54      18.85      18.07
C      20.31      19.19      19.43
C      19.07      18.82      19.99
C      18.09      18.11      19.25
C      18.32      17.77      17.89
C       9.86       0.16       1.32
C      20.55      36.77       0.58
C      30.02      36.43      36.55
C      28.77      36.80      35.98
C      18.09       0.18      36.73
C       8.62       0.52       0.76
C      14.72       1.15      18.32
C      15.69       0.41      19.03
C      25.17      36.38      19.37
C      23.93      35.81      19.00
C      22.95      36.55      18.30
C      13.47       0.59      17.96
C       5.01      17.14       0.34
C      15.69      17.89      36.96
C      15.46      19.24      36.62
C      33.63      19.81      36.99
C      22.95      19.06       0.37
C      23.18      17.71       0.71
C      30.85      35.08      27.92
C      31.58      34.91      29.11
C      32.11      33.64      29.43
C      31.96      32.58      28.51
C      31.23      32.75      27.32
C      30.65      34.01      27.02
C      21.15      20.52      28.08
C      21.88      20.69      26.89
C      22.40      21.96      26.56
C      22.25      23.02      27.48
C      21.51      22.85      28.67
C      20.95      21.59      28.98
C      26.02      27.70      20.70
C      26.75      28.89      20.86
C      27.27      29.24      22.13
C      27.10      28.33      23.21
C      26.37      27.14      23.05
C      25.81      26.82      21.79
C      35.72      27.89      35.27
C      17.03      26.70      35.10
C      17.55      26.37      33.83
C      17.39      27.29      32.77
C      16.66      28.48      32.94
C      35.51      28.79      34.20
C       7.77       1.86       9.42
C       7.05       2.03       8.23
C       6.52       3.30       7.89
C       6.68       4.36       8.81
C       7.42       4.19      10.01
C       7.98       2.93      10.31
C      17.48      16.43       9.24
C      16.75      16.26      10.43
C      16.23      14.99      10.77
C      16.40      13.92       9.86
C      17.13      14.08       8.66
C      17.69      15.34       8.35
C      12.65       9.21      16.61
C      11.92       8.02      16.44
C      11.39       7.70      15.17
C      11.54       8.63      14.11
C      12.27       9.82      14.28
C      12.85      10.12      15.54
C       2.92       9.05       2.05
C      21.61      10.24       2.22
C      21.09      10.58       3.49
C      21.25       9.66       4.56
C      21.98       8.47       4.39
C       3.13       8.16       3.13
H      29.18      34.04      36.77
H      30.21      32.00      36.19
H      31.44      30.16      35.53
H      33.04      28.50      34.98
H      35.79      31.50      33.81
H      32.46      36.19      35.14
H      31.88      33.37      32.14
H      34.64      33.94      28.98
H      16.95      34.40      30.55
H      35.34      34.94      36.58
H      18.28      35.16      32.32
H      19.31      36.03      34.27
H      19.46      21.58      19.22
H      20.49      23.62      19.82
H      21.73      25.45      20.48
H      23.33      27.11      21.03
H      26.09      24.10      22.18
H      22.75      19.42      20.83
H      22.17      22.24      23.85
H      24.93      21.66      27.01
H      26.66      21.19      25.43
H      25.63      20.68      19.41
H      27.98      20.43      23.66
H      29.02      19.57      21.72
H      24.32      36.59      21.76
H      25.35      35.99      23.80
H      26.57      35.32      25.64
H      28.17      34.76      27.30
H      30.94      33.63      24.30
H      27.61      34.97      19.61
H      27.03      31.95      22.41
H      29.80      28.79      21.84
H      31.53      30.38      21.40
H      30.48      36.40      20.87
H      32.85      32.15      20.64
H      14.46      34.10      19.78
H      14.61      19.03      34.23
H      15.64      19.62      32.19
H      16.87      20.28      30.35
H      18.47      20.83      28.69
H      21.23      21.98      31.69
H      17.90      20.65      36.38
H      17.32      23.65      33.56
H      20.08      26.82      34.12
H      21.81      25.24      34.59
H      20.77      19.22      35.13
H      23.13      23.48      35.36
H      24.16      21.53      36.23
H       9.47       2.91       0.55
H       8.44       4.95       1.15
H       7.21       6.79       1.81
H       5.61       8.45       2.37
H       2.85       5.44       3.52
H       6.18       0.76       2.16
H       6.76       3.57       5.18
H       3.99       3.00       8.34
H      21.69       2.54       6.77
H       3.30       2.02       0.74
H      20.37       1.77       5.00
H      19.33       0.91       3.05
H      19.17      15.38      18.12
H      18.15      13.34      17.53
H      16.92      11.50      16.87
H      15.33       9.83      16.31
H      12.56      12.83      15.15
H      15.89      17.53      16.49
H      16.47      14.72      13.48
H      13.70      15.28      10.32
H      11.97      15.73      11.90
H      13.02      16.27      17.92
H      10.65      16.49      13.67
H       9.62      17.35      15.61
H      14.32       0.37      15.56
H      13.29       0.95      13.52
H      12.06       1.61      11.69
H      10.46       2.16      10.02
H       7.70       3.32      13.03
H      11.04       1.99      17.72
H      11.62       4.99      14.89
H       8.85       8.16      15.46
H       7.13       6.58      15.92
H       8.16       0.56      16.46
H       5.80       4.82      16.69
H      24.19       2.88      17.56
H      24.03      17.92       3.10
H      23.00      17.33       5.14
H      21.77      16.67       6.98
H      20.17      16.11       8.64
H      17.41      14.95       5.63
H      20.75      16.30       0.95
H      21.32      13.29       3.76
H      18.56      10.13       3.19
H      16.83      11.70       2.73
H      17.87      17.73       2.21
H      15.51      13.47       1.97
H      14.48      15.42       1.10
H      19.95      34.85      36.88
H      18.68       2.11       0.44
H      25.92       0.60      37.06
H      12.72      36.36       0.26
H      29.67      20.77      19.10
H       8.98      16.18      18.22
H      25.92      17.69      18.93
H      12.72      19.26      18.40
H      15.10      36.71      20.96
H      23.54       0.26      16.38
H      30.77      36.88      17.89
H       7.86       0.09      19.45
H      24.81      18.92      35.04
H      13.83      18.03       2.30
H      11.36      18.74       0.79
H      27.29      18.21      36.55
H      18.84      19.11      20.95
H      19.80      17.84      16.37
H      22.40      18.68      17.73
H      16.24      18.28      19.58
H      28.54      36.50      35.03
H      10.10       0.45       2.27
H      22.40      36.94       0.91
H      16.24       0.01      36.39
H      23.70      34.86      19.30
H      14.95       2.11      18.03
H      17.55       0.75      18.86
H      21.10      36.22      18.46
H      33.40      20.76      36.70
H       5.24      16.19       0.64
H      17.55      17.55      37.13
H      21.10      19.40       0.20
H      32.41      31.67      28.69
H      30.45      36.00      27.72
H      32.52      36.49      29.56
H      31.83      31.58      25.96
H      22.69      23.93      27.29
H      20.76      19.59      28.28
H      22.83      19.11      26.44
H      22.11      24.03      30.03
H      27.53      28.54      24.11
H      25.64      27.49      19.78
H      27.71      29.32      19.29
H      26.95      25.79      24.23
H      17.83      27.10      31.86
H      35.33      28.08      36.20
H      17.98      26.25      36.68
H      17.26      29.84      31.77
H       6.25       5.27       8.62
H       8.17       0.93       9.62
H       6.10       0.45       7.78
H       6.82       5.37      11.36
H      15.97      13.01      10.06
H      17.86      17.35       9.03
H      15.79      17.84      10.86
H      16.55      12.90       7.31
H      11.09       8.45      13.20
H      13.04       9.41      17.53
H      10.98       7.57      18.01
H      11.67      11.18      13.11
H      20.81       9.86       5.46
H       3.31       8.84       1.13
H      20.66      10.68       0.64
H      21.40       7.11       5.57
O      26.62       0.84      36.41
O      12.02      36.12       0.90
O      26.62      17.45      19.57
O      12.02      19.49      17.75
O      31.48      36.23      17.65
O       7.16       0.73      19.69
O      12.06      19.38       1.03
O      26.58      17.57      36.30
O      21.67      19.26      17.42
O      16.97      17.70      19.90
O      21.67      36.37       1.23
O      16.97       0.59      36.08
O      16.82       1.06      19.44
O      21.83      35.90      17.89
O      16.82      17.24      36.55
O      21.83      19.71       0.78
O      31.75      35.99      29.92
O      31.02      31.67      26.51
O      22.06      19.60      26.08
O      21.30      23.93      29.47
O      26.94      29.69      19.77
O      26.14      26.35      24.13
O      17.21      25.88      36.18
O      16.45      29.29      31.86
O       6.87       0.94       7.42
O       7.63       5.27      10.81
O      16.56      17.35      11.23
O      17.35      13.00       7.87
O      11.74       7.21      17.51
O      12.48      10.63      13.21
O      21.43      11.04       1.13
O      22.20       7.67       5.47
