22

N       1.94       8.53       1.03
Zn      -3.18      10.17       0.97
N      -3.54      11.33       2.46
Zn       1.64       8.83      -0.98
N       6.75      10.49      -1.04
N       1.26       7.70      -2.48
O      -0.27       9.41      -0.33
O      -1.54       9.12       1.53
O       4.53       9.62       0.32
O       3.28       9.89      -1.55
H       2.84       9.00       1.22
H       7.65      10.02      -1.23
C       2.11       7.04       1.34
C       0.84       9.17       1.79
C      -0.42       9.21       0.92
C      -4.74      12.04       2.51
C      -2.63      11.57       3.48
C       6.93      11.97      -1.34
C       5.66       9.84      -1.80
C       4.39       9.81      -0.94
C       0.07       6.96      -2.52
C       2.17       7.46      -3.51
