22

Zn       0.08      13.20       8.38
N       5.19      13.88       6.93
Zn       4.90      15.46       8.20
N       4.51      17.33       7.94
N       0.38      14.77       9.69
O       2.99      14.61       8.41
O       1.71      13.19       7.19
O      -1.83      14.04       8.23
O      -3.10      15.51       9.41
H       6.08      13.46       7.22
H       1.28      15.18       9.41
C      -1.53      10.95       9.22
C       0.56      10.30       8.30
C       5.35      14.36       5.49
C       4.08      12.91       7.11
C       2.83      13.65       7.59
C       3.31      17.71       7.34
C       5.40      18.36       8.25
C       0.53      14.27      11.13
C      -0.72      15.75       9.51
C      -1.98      15.03       9.03
N      -0.33      11.33       8.62
