25

H       7.26       2.20      12.17
H       8.47       0.09      12.42
H       8.18       0.30      14.21
H       9.15       1.49      13.31
H       6.54       0.22      10.75
H       1.61       0.24      14.16
H       2.85      -1.14      14.44
H       2.48      -1.91      12.24
H       1.27      -0.50      11.92
C       4.84       0.81      13.67
C       3.56       0.52      13.20
C       3.37       0.05      11.93
C       5.71       0.29      11.45
C       5.90       0.85      12.73
C       2.47      -0.34      13.76
C       2.25      -0.83      12.35
C       4.46      -0.22      11.10
C       4.27      -1.13       9.99
C       4.99       1.11      15.09
C       8.27       0.81      13.24
N       7.09       1.58      12.97
O       3.99       0.74      15.84
O       6.18       0.99      15.60
O       5.25      -1.67       9.38
O       3.08      -1.47       9.78
