25

H       8.58       2.64       4.74
H       3.46       3.91       3.96
H       3.59       5.69       3.43
H       4.37       4.42       6.11
H       3.55       6.70       6.20
H       4.92       8.57       5.54
H       4.22       7.79       4.08
H       5.94       7.47       4.56
H       7.64       2.17       2.53
C       7.47       4.22       6.64
C       7.72       3.21       4.39
C       7.19       2.94       3.13
C       5.16       2.94       1.69
C       4.07       4.84       3.96
C       5.98       3.55       2.73
C       5.47       4.60       3.50
C       6.01       4.88       4.74
C       4.91       7.64       4.94
C       4.66       5.16       5.32
C       7.05       4.09       5.26
N       4.47       6.53       5.77
O       5.44       1.76       1.32
O       6.85       5.14       7.32
O       7.78       3.12       7.27
O       4.12       3.54       1.28
