14

Co       6.73      11.48       8.72
C       8.64      13.40       7.26
Co      10.24      11.49       8.72
C       8.58      12.40      10.96
C       4.91      10.56       6.48
O       7.56      12.72       7.42
O       9.68      13.27       7.96
O       5.95      10.50       7.21
O       3.79      11.03       6.88
O       3.80       9.72       9.50
O       5.95      10.25      10.03
O       7.54      12.45      10.22
C       4.85       9.57      10.21
O       9.70      11.94      10.58
