13

Zn       7.81       3.03      10.24
C       9.78       0.71      10.05
C       7.73       0.01      10.24
C       9.10       3.00      12.99
C       9.08       3.65       7.50
C       4.74       2.79      10.31
C       5.43       3.67       8.48
C       7.99       4.82      12.74
N       8.46       1.14      10.17
N       8.39       3.72      12.07
N       8.84       4.01       8.82
N       5.87       3.12       9.65
C       9.47       5.19       8.98
