13

Zn       1.66      -3.02      10.24
C       1.74       0.01      10.24
C       4.74      -2.79      10.31
C      -0.31      -0.71      10.06
C       0.36      -2.99      12.99
C       0.39      -3.64       7.50
C       1.50      -4.79      12.75
C       4.04      -3.66       8.47
N       1.01      -1.13      10.17
N       1.09      -3.70      12.07
N       0.63      -4.01       8.83
N       3.61      -3.10       9.64
C      -0.00      -5.19       8.99
