13

C      14.90       9.78      14.81
Zn      17.28      10.42      13.04
C      17.20      13.44      13.04
C      14.20      10.65      12.97
C      17.44       8.65      10.53
C      18.55       9.80      15.78
C      18.94       8.26      14.29
C      19.26      12.73      13.23
C      18.58      10.45      10.30
N      17.93      12.31      13.11
N      17.85       9.74      11.21
N      18.31       9.43      14.46
N      15.34      10.34      13.64
