48

C       8.43      10.19       5.94
C       9.65       9.56       5.58
C       1.00      10.19       5.94
C       9.65       8.34       4.88
C       9.65       7.11       5.57
C       9.65       8.33       3.46
C       9.65       5.88       4.88
C       9.65       7.11       2.75
C       9.65       5.89       3.46
C       9.65      -1.48       7.71
C       9.65      -0.25       7.01
C       9.65       0.98       7.71
C       9.65       0.96       9.12
C       9.65      -0.26       9.84
C       9.65      -1.47       9.12
C       8.43      -0.26      11.97
C       8.43       7.11       0.62
C       9.65       7.11       1.34
C       1.00       7.11       0.62
C       1.00      -0.26      11.97
C       9.65      -0.26      11.25
C       8.43       2.82       6.65
C       8.43       4.04       5.94
C       9.65       4.66       5.58
C       1.00       4.04       5.94
C       1.00       2.82       6.65
C       9.65       2.20       7.01
C       8.43      -3.33       6.65
C       1.00      -3.33       6.65
C       9.65      -2.71       7.01
H       1.90       9.76       5.69
H       7.54       9.76       5.69
H       9.65       9.22       2.95
H       9.65       7.11       6.60
H       9.65       5.01       2.95
H       9.65       1.85       9.64
H       9.65      -2.36       9.64
H       9.65      -0.25       5.99
H       1.90       7.11       1.11
H       7.54       7.11       1.11
H       7.54      -0.26      11.47
H       1.90      -0.26      11.47
H       1.90       4.47       5.69
H       7.54       4.47       5.69
H       7.54       2.39       6.89
H       1.90       2.39       6.89
H       7.54      -2.90       6.89
H       1.90      -2.90       6.89
