100

Nb       2.44       1.43      18.12
Nb       2.82      10.99      19.56
Nb      12.42      11.71      17.61
Nb       5.32       7.81      11.24
Nb       4.98       4.61       9.80
Nb       7.66       5.33      11.75
Nb      10.95      11.32       1.46
Nb      10.57       1.77       0.01
Nb       0.97       1.05       1.97
Nb       8.07       4.95       8.33
Nb       8.42       8.15       9.78
Nb       5.73       7.43       7.82
Cu       7.44       3.28      16.79
Cu      12.60       9.64      12.56
Cu       5.95       9.48       2.77
Cu       0.79       3.12       7.01
H       8.14      11.12      17.20
H       6.87      11.17      18.47
H       8.58      11.61      18.86
H      11.94       4.75      12.16
H       0.93       4.80      10.90
H      11.52       5.23      10.50
H       5.25       1.63       2.37
H       6.52       1.59       1.11
H       4.82       1.14       0.72
H       1.46       8.01       7.41
H      12.46       7.96       8.67
H       1.88       7.53       9.07
C       4.55       3.20      16.38
C       4.27       8.96       0.45
C      11.10      10.40      14.93
C       7.47       0.27      17.76
C       7.78      11.65      18.09
C       3.21       9.57      12.99
C       2.47       2.58       9.33
C       8.97       4.03      14.44
C      12.58       6.66      11.60
C      12.31       5.28      11.27
C       8.84       9.55       3.20
C       9.12       3.80      19.12
C       2.29       2.35       4.65
C       5.92      12.48       1.82
C       5.61       1.10       1.48
C      10.18       3.19       6.59
C      10.93      10.18      10.24
C       4.42       8.73       5.13
C       0.82       6.10       7.98
C       1.09       7.48       8.31
S       5.69       4.08      15.59
S       5.58       8.11       0.97
S      10.51       9.71      13.57
S       2.07      10.44      13.77
S       1.17       1.74       8.81
S       9.54       3.32      15.79
S       7.71       8.67       3.98
S       7.81       4.64      18.60
S       2.88       3.05       6.00
S      11.32       2.32       5.81
S      12.23      11.02      10.77
S       3.85       9.43       3.78
N       3.70       2.59      16.94
N       3.34       9.60       0.12
N      11.52      10.88      15.93
N       7.25       1.39      17.51
N       4.06       8.96      12.43
N       3.40       3.23       9.67
N       8.55       4.52      13.44
N      12.79       7.77      11.85
N       9.69      10.17       2.64
N      10.05       3.16      19.46
N       1.87       1.88       3.64
N       6.14      11.36       2.07
N       9.33       3.80       7.14
N      10.00       9.53       9.90
N       4.84       8.24       6.13
N       0.60       4.99       7.73
Cl      12.99       3.23      18.06
Cl       2.42       2.52       0.54
Cl       4.27      12.42      18.10
Cl       1.45       0.40      16.06
Cl       2.78      12.05       2.01
Cl       1.87       9.90      17.53
Cl       7.06       9.61      11.30
Cl       4.27       8.90       9.24
Cl       3.52       6.05      11.25
Cl       6.31       6.77      13.29
Cl       3.95       5.68       7.77
Cl       5.93       3.52      11.83
Cl       0.40       9.53       1.51
Cl      10.97      10.24      19.03
Cl       9.12       0.33       1.47
Cl      11.94      12.36       3.51
Cl      10.61       0.71      17.57
Cl      11.52       2.86       2.04
Cl       6.33       3.15       8.28
Cl       9.12       3.86      10.33
Cl       9.87       6.71       8.32
Cl       7.08       5.99       6.28
Cl       9.44       7.08      11.80
Cl       7.46       9.24       7.75
