11

C       3.71       9.61      17.16
C       2.10      12.98      19.83
N       3.52       9.31      18.46
Zn       3.67      10.68      19.97
N       3.98       9.84      21.73
N       5.14       9.17      21.94
C       6.42      10.87      19.27
O       5.35      11.57      19.47
N       3.58       7.96      18.54
O       2.06      11.68      19.70
C       3.38       9.98      22.92
