13

H       3.36       2.12       4.96
H       4.18       0.44       3.27
H       7.32       2.87       2.16
H       6.71       4.58       3.90
N       5.82       1.54       2.70
O       3.33       4.26       6.05
O       5.16       5.55       5.80
C       4.45       4.51       5.51
C       4.94       3.52       4.50
C       4.21       2.33       4.32
C       4.71       1.37       3.44
C       6.52       2.69       2.86
C       6.10       3.69       3.76
