30

C      10.87      17.54       7.11
C      10.58      16.78       8.22
C       9.67      15.75       8.13
C       8.98      15.51       6.92
C       9.40      13.89       3.97
C       7.32      18.43       5.17
O       6.73      14.77       6.82
C       7.92      14.42       6.88
O       8.32      13.22       6.91
C      10.77      17.97       4.66
O      11.21      17.25       3.73
O      10.83      19.22       4.66
O      10.50      14.04       4.53
O       7.30      19.61       4.70
O       8.93      12.78       3.62
O       7.05      18.18       6.36
H       7.85      14.38       1.92
H       6.65      16.25       1.29
H       6.46      18.05       2.75
H      11.50      18.23       7.17
H      11.00      16.97       9.03
H       9.51      15.21       8.87
C       8.45      16.20       4.56
C       8.54      15.09       3.68
C       7.83      15.12       2.48
C       7.08      16.23       2.11
C       6.97      17.31       2.99
C       7.61      17.29       4.21
C       9.24      16.30       5.81
C      10.25      17.27       5.89
