30

H       7.40       9.65       3.40
H       7.47       8.48       1.41
H       8.34       6.34       1.39
H      11.65       6.75       8.01
H      10.59       5.00       9.03
H       8.77       4.00       8.06
O       8.16      10.30       5.65
C       8.74       6.91       4.57
C       8.20       8.21       4.57
C       7.74       8.79       3.38
C       7.79       8.09       2.20
C       8.32       6.81       2.19
C       8.82       6.22       3.33
C       9.26       6.32       5.83
C      10.43       6.85       6.38
C      10.90       6.36       7.61
C      10.27       5.32       8.22
C       9.17       4.74       7.66
C       8.62       5.26       6.47
C       8.09       9.05       5.82
C       9.41       4.85       3.25
O       7.91       8.50       6.93
C       7.35       4.64       5.93
O       8.80       4.01       2.56
O      10.45       4.58       3.90
O      11.91       7.58       4.71
O      11.09       9.09       6.07
O       6.31       5.30       5.95
O       7.44       3.42       5.53
C      11.19       7.93       5.67
