59

Cd       3.58      10.47       6.81
Cd       7.58       4.23       5.70
Cd       5.58       7.35       6.25
H       2.50       5.72       6.86
H       4.69      13.09      10.40
H       2.82       7.57      10.73
H       6.10      13.05      12.07
H       5.61       7.71       2.01
H       1.33       1.87       2.70
H       1.14       2.24       0.24
H       8.66       8.99       5.64
H       6.47       1.62       2.11
H       8.34       7.14       1.78
H       5.06       1.65       0.44
H       5.55       7.00      10.50
H       9.83      12.83       9.80
H      10.02      12.47      12.26
C       2.70       6.77       8.74
C       2.48       5.64       7.95
C       2.21       4.41       8.56
C       2.22       4.31       9.95
C       2.46       5.43      10.76
C       2.65       6.67      10.14
C       2.54       5.26      12.23
C       5.14       8.85       0.24
C       5.22       8.64       1.61
C       4.80       9.64       2.51
C       1.65       1.10       2.00
C       1.55       1.30       0.62
C       2.97       8.09       8.11
C       1.88       3.21       7.74
C       4.85       9.39       3.98
C       8.46       7.93       3.77
C       8.68       9.07       4.56
C       8.95      10.29       3.95
C       8.94      10.40       2.56
C       8.70       9.28       1.74
C       8.51       8.03       2.37
C       8.62       9.45       0.28
C       6.02       5.85      12.27
C       5.94       6.07      10.90
C       6.36       5.07      10.00
C       9.51      13.60      10.51
C       9.61      13.40      11.88
C       8.19       6.62       4.40
C       9.28      11.50       4.76
C       6.31       5.32       8.53
O       2.68       9.16       8.69
O       3.50       8.10       6.90
O       1.57       3.34       6.50
O       4.57      11.82       8.32
O       5.27       8.21       4.31
O       4.51      10.32       4.76
O       8.48       5.54       3.82
O       7.66       6.60       5.60
O       9.59      11.36       6.00
O       6.59       2.89       4.19
O       5.89       6.49       8.19
O       6.65       4.38       7.75
