342

C       1.07      44.31      26.25
C       0.03      45.28      26.09
C       8.98      45.04      25.15
C       2.21      44.48      27.20
C       9.97      42.88      24.55
C       1.03      43.13      25.48
C       8.97      43.86      24.38
C       0.07      39.56      23.14
C       9.74      37.26      22.67
C       9.88      38.82      20.89
C       9.94      39.04      19.53
C       0.23      40.56      24.07
C       9.62      35.93      23.01
C       0.07      30.79       7.11
C       9.75      31.54       9.34
C       9.88      29.21       8.87
C       9.95      27.92       9.36
C       0.23      31.09       5.77
C       9.63      32.50      10.32
C       0.07      21.29      22.72
C       9.74      22.85      20.96
C       9.88      23.61      23.21
C       9.95      24.68      24.07
C       0.23      19.98      23.12
C       9.62      23.22      19.64
C       0.05      -8.97      29.66
C       9.78      -6.68      30.19
C       9.92      -8.29      31.93
C       0.01      -8.55      33.29
C       0.15      -9.96      28.70
C       9.68      -5.34      29.89
C       0.04      -0.57      45.88
C       9.78      -1.26      43.63
C       9.91       1.06      44.15
C       0.01       2.36      43.70
C       0.15      -0.90      47.22
C       9.67      -2.18      42.62
C       0.05       9.28      30.49
C       9.78       7.67      32.22
C       9.92       6.97      29.95
C       0.02       5.92      29.05
C       0.15      10.60      30.12
C       9.68       7.27      33.53
C       9.95     -14.78      26.84
C       0.68     -13.66      26.34
C       0.68     -12.44      27.04
C       9.96     -12.31      28.26
C       9.27     -13.44      28.76
C       9.25     -14.68      28.08
C       8.50     -15.85      28.63
C       9.96      30.36       3.53
C       1.03      31.03       2.85
C       1.07      31.11       1.44
C       0.03      30.49       0.68
C       8.98      29.79       1.36
C       8.97      29.72       2.77
C       9.95      -0.10      52.32
C       0.68      -1.10      51.60
C       0.68      -1.10      50.20
C       9.96      -0.11      49.47
C       9.27       0.89      50.20
C       9.25       0.91      51.61
C       2.21      31.84       0.82
C       8.50       1.98      52.35
C       9.97      18.41      24.89
C       1.03      17.48      24.64
C       1.07      16.22      25.28
C       0.03      15.88      26.19
C       8.98      16.81      26.46
C       8.97      18.07      25.82
C       9.95      14.62      26.87
C       0.68      14.50      28.09
C       0.68      13.28      28.80
C       9.96      12.16      28.30
C       9.27      12.29      27.07
C       9.25      13.50      26.34
C       2.21      15.32      24.95
C       8.50      13.61      25.05
C       9.53      37.88      17.43
C       8.60      36.94      16.96
C       8.68      36.38      15.67
C       9.76      36.79      14.82
C       0.70      37.77      15.28
C       0.59      38.31      16.57
C       0.08      36.09      13.61
C       9.35      36.44      12.44
C       9.44      35.64      11.28
C       0.28      34.50      11.28
C       1.04      34.19      12.43
C       0.94      34.95      13.61
C       7.67      35.35      15.30
C       1.70      34.55      14.84
C       9.54      26.69      11.42
C       8.60      26.75      12.47
C       8.68      25.90      13.60
C       9.76      24.97      13.67
C       0.70      24.88      12.60
C       0.59      25.73      11.48
C       0.08      24.28      14.88
C       9.35      23.09      15.16
C       9.44      22.48      16.43
C       0.28      23.05      17.43
C       1.04      24.20      17.12
C       0.94      24.85      15.86
C       7.67      26.11      14.68
C       1.70      26.11      15.60
C       9.54      27.07      24.12
C       8.60      27.95      23.54
C       8.68      29.35      23.71
C       9.76      29.88      24.48
C       0.70      29.00      25.09
C       0.59      27.61      24.91
C       0.08      31.27      24.48
C       9.34      32.12      25.36
C       9.44      33.52      25.25
C       0.27      34.10      24.26
C       1.03      33.26      23.42
C       0.94      31.84      23.49
C       7.67      30.18      22.99
C       1.70      30.98      22.53
C       9.58      -7.44      35.41
C       8.64      -6.51      35.90
C       8.72      -5.99      37.21
C       9.80      -6.41      38.05
C       0.74      -7.37      37.57
C       0.63      -7.88      36.26
C       0.12      -5.74      39.27
C       9.38      -6.10      40.43
C       9.46      -5.33      41.60
C       0.30      -4.18      41.64
C       1.07      -3.85      40.50
C       0.98      -4.60      39.30
C       7.71      -4.96      37.59
C       1.74      -4.17      38.08
C       9.58       3.65      41.68
C       8.64       3.61      40.63
C       8.72       4.48      39.52
C       9.80       5.42      39.46
C       0.74       5.49      40.54
C       0.63       4.61      41.64
C       0.12       6.14      38.28
C       9.38       7.33      38.01
C       9.47       7.96      36.76
C       0.30       7.41      35.75
C       1.07       6.26      36.03
C       0.98       5.59      37.28
C       7.71       4.30      38.44
C       1.74       4.33      37.51
C       9.58       3.53      28.95
C       8.64       2.64      29.50
C       8.72       1.24      29.30
C       9.79       0.73      28.52
C       0.74       1.63      27.92
C       0.63       3.01      28.13
C       0.12      -0.66      28.49
C       9.38      -1.49      27.59
C       9.47      -2.89      27.67
C       0.30      -3.49      28.65
C       1.07      -2.67      29.50
C       0.98      -1.25      29.46
C       7.71       0.40      30.00
C       1.74      -0.42      30.44
H       8.23      45.72      25.01
H       9.17      44.55      28.69
H       2.26      43.61      27.86
H       4.17      44.67      27.09
H       8.21      43.71      23.71
H       1.78      42.44      25.58
H       9.17      35.33      22.35
H       0.53      40.32      24.99
H       0.41      39.86      19.17
H       9.17      32.22      11.17
H       0.53      32.01       5.53
H       0.41      27.21       8.84
H       9.17      24.09      19.45
H       0.53      19.31      22.46
H       0.41      24.58      24.96
H       9.26      -4.75      30.58
H       0.34      -9.69      27.76
H       0.46      -9.37      33.62
H       9.26      -1.88      41.76
H       0.34      -1.85      47.45
H       0.45       3.06      44.25
H       9.25       6.37      33.69
H       0.34      11.28      30.82
H       0.46       6.05      28.17
H       1.20     -13.73      25.46
H       1.22     -11.66      26.66
H       8.76     -13.34      29.64
H       7.70     -16.10      27.93
H       8.58     -15.62      30.59
H       2.11     -15.91      27.83
H       8.23      29.33       0.84
H       8.21      29.21       3.23
H       1.20      -1.83      52.10
H       1.21      -1.82      49.71
H       8.76       1.60      49.67
H       1.78      31.46       3.40
H       9.17      33.10       0.01
H       7.70       1.50      52.92
H       8.58       3.56      51.17
H       2.11       1.32      52.80
H       2.26      32.85       1.24
H       4.17      31.66       0.71
H       8.23      16.59      27.12
H       8.21      18.72      26.03
H       1.20      15.29      28.47
H       1.22      13.22      29.67
H       8.76      11.47      26.72
H       1.78      17.74      23.99
H       9.17      13.98      24.27
H       7.70      14.34      25.19
H       8.58      11.80      24.27
H       2.11      14.33      25.40
H       2.26      15.18      23.87
H       4.17      15.31      25.17
H       1.50      38.03      14.70
H       1.32      38.93      16.91
H       8.69      37.22      12.45
H       8.86      35.86      10.47
H       1.62      33.35      12.40
H       7.88      36.60      17.61
H       1.02      34.45      15.68
H       2.40      35.35      15.08
H       1.87      32.58      14.73
H       7.87      34.89      14.33
H       7.70      34.55      16.05
H       5.72      35.24      15.07
H       1.50      24.25      12.66
H       1.33      25.71      10.77
H       8.69      22.69      14.48
H       8.86      21.67      16.64
H       1.62      24.60      17.86
H       7.87      27.48      12.44
H       1.01      26.89      15.27
H       2.40      25.92      14.79
H       1.86      27.00      17.36
H       7.86      25.50      15.56
H       7.69      27.16      15.00
H       5.72      25.96      14.88
H       1.50      29.37      25.61
H       1.33      27.00      25.28
H       8.69      31.72      26.05
H       8.86      34.11      25.85
H       1.62      33.69      22.70
H       7.87      27.56      22.92
H       1.01      30.30      22.02
H       2.40      30.38      23.10
H       1.86      32.06      20.88
H       7.86      31.25      23.08
H       7.69      29.94      21.92
H       5.71      30.44      23.02
H       1.54      -7.65      38.14
H       1.37      -8.50      35.91
H       8.72      -6.89      40.41
H       8.88      -5.57      42.41
H       1.65      -3.02      40.54
H       7.92      -6.16      35.26
H       1.06      -4.06      37.23
H       2.45      -4.97      37.83
H       1.90      -2.21      38.23
H       7.90      -4.52      38.58
H       7.74      -4.14      36.87
H       5.76      -4.86      37.83
H       1.54       6.12      40.49
H       1.37       4.61      42.35
H       8.72       7.71      38.71
H       8.88       8.78      36.56
H       1.65       5.88      35.29
H       7.92       2.88      40.64
H       1.06       3.54      37.84
H       2.45       4.51      38.33
H       1.90       3.47      35.74
H       7.90       4.93      37.57
H       7.74       3.26      38.09
H       5.76       4.45      38.23
H       1.54       1.27      27.40
H       1.37       3.63      27.78
H       8.73      -1.07      26.91
H       8.88      -3.47      27.06
H       1.65      -3.12      30.21
H       7.92       3.02      30.13
H       1.05       0.26      30.96
H       2.44       0.20      29.88
H       1.90      -1.53      32.07
H       7.90      -0.67      29.88
H       7.73       0.62      31.07
H       5.75       0.15      29.97
N       9.91      38.27      23.56
N       9.73      37.56      21.35
N       0.06      39.82      21.80
N       9.91      31.80       8.02
N       9.74      30.25       9.74
N       0.06      29.50       7.55
N       9.91      21.57      21.39
N       9.74      23.84      21.88
N       0.06      22.32      23.61
N       9.91      -7.67      29.27
N       9.79      -7.01      31.50
N       0.06      -9.27      30.99
N       9.90      -1.55      44.95
N       9.79       0.05      43.26
N       0.06       0.73      45.47
N       9.91       8.96      31.81
N       9.79       6.70      31.27
N       0.06       8.27      29.57
N       9.90      41.78      23.80
N       9.94     -11.20      28.99
N       9.90      30.25       4.85
N       9.93      -0.04      48.14
N       9.90      19.61      24.32
N       9.94      10.97      28.90
N       9.54      38.12      18.73
N       0.24      33.64      10.26
N       9.54      27.70      10.56
N       0.24      22.60      18.68
N       9.54      25.83      23.67
N       0.24      35.41      24.02
N       9.58      -7.64      34.10
N       0.26      -3.34      42.67
N       9.58       2.62      42.51
N       0.26       7.89      34.50
N       9.58       4.76      29.42
N       0.26      -4.80      28.86
O       3.43      44.59      26.45
O       7.87     -15.67      29.90
O       7.87       2.99      51.56
O       3.43      31.14       1.10
O       7.87      12.41      24.57
O       3.43      15.91      25.42
O       2.48      33.35      14.76
O       6.37      35.94      15.28
O       2.48      26.64      16.68
O       6.37      25.78      14.17
O       2.47      31.66      21.53
O       6.37      29.91      23.53
O       2.52      -2.97      38.19
O       6.41      -5.56      37.61
O       2.52       3.82      36.42
O       6.41       4.61      38.95
O       2.52      -1.11      31.43
O       6.41       0.69      29.47
