172

Eu      -1.41      12.65      14.19
Eu      10.06       5.78       1.26
Eu       7.75       1.09      16.73
Eu      -3.71       7.95      29.66
H      -0.56       0.20      19.88
H       0.79      13.31      21.89
H       3.19      10.65      19.48
H       1.84      11.28      17.46
H       1.95       2.73       3.52
H       3.36       2.07       5.48
H       0.69       4.23       8.10
H      -0.68       4.91       6.11
H       7.15      10.07      14.59
H       5.79       8.02      14.22
H       3.12       9.21      17.39
H       4.51      11.28      17.75
H       4.61       7.07      26.46
H       3.24       6.47      24.46
H       0.88       3.80      26.90
H       2.25       4.45      28.91
H       6.67       9.62      11.93
H       5.28       8.94       9.96
H       7.98      11.06       7.34
H       9.35      11.74       9.33
H       1.51       3.20       0.87
H       2.86       1.15       1.23
H       0.93       2.37      28.97
H      -0.46       4.44      28.62
H       6.91      13.52      11.02
H       5.55       0.41       9.01
H       3.17       3.08      11.43
H       4.52       2.44      13.45
H       4.38      10.98      27.39
H       2.98      11.63      25.43
H       5.68       9.51      22.81
H       7.06       8.85      24.79
H      -0.80       3.67      16.33
H       0.57       5.72      16.69
H       3.24       4.52      13.52
H       1.85       2.46      13.16
H       1.74       6.67       4.43
H       3.10       7.26       6.44
H       5.48       9.92       4.02
H       4.13       9.28       2.00
H      -0.33       4.12      18.99
H       1.07       4.80      20.95
H      -1.63       2.66      23.57
H      -2.99       1.97      21.58
H       4.85      10.52      30.04
H       3.49      12.57      29.67
H       5.43      11.36       1.94
H       6.81       9.29       2.30
C       6.70       0.80      13.51
C       5.81       1.12      12.34
C       6.08       0.53      11.09
C       5.33       0.86       9.98
C       4.28       1.81      10.09
C       2.37      11.36      19.55
C       1.62      11.70      18.44
C       3.54       2.23       8.96
C      -0.28       4.26       3.53
C       0.54       3.84       4.71
C       1.68       3.04       4.53
C       2.46       2.67       5.61
C       2.10       3.08       6.92
C       0.96       3.91       7.10
C       0.20       4.28       6.00
C       2.87       2.65       8.03
C       6.65      12.07      16.43
C       5.91      10.79      16.20
C       6.28       9.87      15.21
C       5.51       8.73      14.99
C       4.35       8.48      15.77
C       4.00       9.41      16.79
C       4.77      10.54      16.99
C       3.55       7.35      15.54
C       1.96       7.63       1.95
C       2.85       7.95       3.11
C       2.57       7.37       4.37
C       3.32       7.71       5.48
C       4.37       8.65       5.37
C       1.70       4.52      26.82
C       2.46       4.87      27.93
C       5.12       9.07       6.49
C       8.93      11.12      11.89
C       8.10      10.70      10.73
C       6.95       9.92      10.92
C       6.18       9.54       9.83
C       6.55       9.93       8.52
C       7.70      10.74       8.34
C       8.46      11.12       9.44
C       5.79       9.49       7.42
C      -2.60       5.23      29.94
C      -1.86       3.96      30.17
C       2.38       3.01       0.25
C       3.14       1.87       0.47
C      -0.31       1.64      30.60
C       0.05       2.57      29.58
C      -0.72       3.71      29.38
C       0.50       0.51      30.82
C      -0.34      12.92      17.40
C       0.55      12.61      18.56
C       0.27      13.19      19.81
C       1.02      12.86      20.93
C       2.07      11.92      20.82
C       3.98       2.37      11.36
C       4.73       2.02      12.47
C       2.81      11.50      21.95
C       6.66       9.48      27.37
C       5.82       9.89      26.20
C       4.66      10.67      26.38
C       3.88      11.04      25.30
C       4.25      10.64      23.98
C       5.40       9.83      23.81
C       6.17       9.47      24.91
C       3.48      11.07      22.88
C      -0.31       1.68      14.49
C       0.45       2.95      14.71
C       0.08       3.86      15.71
C       0.85       5.00      15.92
C       2.00       5.25      15.14
C       2.35       4.33      14.13
C       1.58       3.19      13.92
C       2.81       6.38      15.37
C       4.41       6.10      28.96
C       3.52       5.77      27.80
C       3.79       6.36      26.54
C       3.03       6.02      25.43
C       1.98       5.07      25.55
C       4.67       9.21       4.10
C       3.91       8.86       2.98
C       1.23       4.65      24.43
C      -2.58       2.60      19.02
C      -1.75       3.03      20.18
C      -0.60       3.82      19.99
C       0.17       4.19      21.08
C      -0.20       3.79      22.39
C      -1.34       2.98      22.57
C      -2.11       2.60      21.47
C       0.56       4.23      23.50
C       8.94       8.49       0.96
C       8.20       9.77       0.74
C       3.97      10.71      30.66
C       3.21      11.86      30.44
C       6.66      12.08       0.31
C       6.31      11.16       1.33
C       7.07      10.03       1.54
C       5.86      13.22       0.09
O       7.66       0.02      13.26
O      -0.10      12.40      16.26
O       9.79       5.17       3.67
O      -0.03       3.73       2.39
O       7.76      12.28      15.79
O       6.18      12.93      17.23
O       1.00       6.84       2.19
O       4.18       5.57      30.09
O      -1.14      12.02      11.74
O       8.69      10.62      13.05
O      -3.71       5.44      30.57
O      -2.11       6.09      29.15
O      -1.31      13.71      17.65
O       6.45       1.33      14.64
O      -3.43       8.55      27.22
O       6.44      10.01      28.52
O      -1.43       1.49      15.11
O       0.16       0.80      13.70
O       5.36       6.91      28.71
O       2.21       8.15       0.81
O       7.49       1.70      19.18
O      -2.33       3.10      17.86
O      10.05       8.28       0.34
O       8.44       7.62       1.74
