28

C       9.05       8.08       5.35
H       3.25      10.13       6.88
C       7.97       8.85       5.63
H       1.24       9.11       7.26
C       6.70       8.26       5.92
H       1.06       6.78       7.19
O       5.55      11.08       5.14
H       2.88       5.48       6.74
O       5.93      11.13       7.35
H       7.68       5.13       5.50
O       5.38       4.18       7.24
H       9.69       6.15       5.12
O       5.00       4.14       5.03
H       9.87       8.48       5.19
H       8.06       9.78       5.64
C       5.69      10.54       6.26
C       5.59       9.03       6.26
C       4.35       8.43       6.53
C       3.19       9.20       6.84
C       1.99       8.60       7.07
C       1.88       7.18       7.03
C       2.96       6.41       6.75
C       4.23       7.00       6.47
C       5.24       4.72       6.12
C       5.35       6.23       6.12
C       6.58       6.83       5.85
C       7.74       6.06       5.54
C       8.94       6.66       5.31
