972

H      45.76      21.97      23.69
H      48.02      22.60      23.30
H      45.73      24.23      27.24
H      47.99      24.86      26.86
H      50.49      24.15      27.26
H      51.73      22.41      28.30
H      51.84      20.31      24.65
H      50.60      22.04      23.61
H      51.97      24.40      23.19
H      52.40      25.12      20.98
H      48.31      25.97      20.44
H      47.87      25.26      22.65
H      47.91      26.61      24.76
H      51.96      25.66      25.47
H      52.41      27.95      25.92
H      48.36      28.88      25.22
H      45.72      42.88      27.13
H      47.98      42.23      26.80
H      45.81      45.05      23.51
H      48.08      44.40      23.18
H      50.67      44.91      23.48
H      51.96      46.65      24.46
H      51.77      44.68      28.18
H      50.49      42.94      27.20
H      51.97      41.36      25.48
H      52.40      39.08      25.96
H      48.36      38.15      25.23
H      47.92      40.42      24.74
H      47.90      41.73      22.60
H      52.00      42.54      23.15
H      52.44      41.78      20.95
H      48.33      40.99      20.40
H      45.72      35.51       7.34
H      47.98      35.55       8.07
H      45.81      31.29       7.29
H      48.07      31.33       8.03
H      50.66      31.34       7.42
H      51.95      31.32       5.42
H      51.78      35.53       5.28
H      50.50      35.55       7.27
H      51.96      34.83       9.51
H      52.39      36.39      11.24
H      48.34      36.24      12.39
H      47.91      34.69      10.67
H      47.89      32.18      10.62
H      51.99      32.24       9.64
H      52.43      30.71      11.40
H      48.33      30.65      12.37
H      17.77      12.86      33.65
H      20.02      12.24      34.04
H      17.84      10.80      29.97
H      20.10      10.18      30.36
H      22.69      10.70      30.05
H      23.98      12.42      29.03
H      23.82      14.65      32.61
H      22.54      12.93      33.63
H      24.00      10.64      34.12
H      24.44       9.92      36.34
H      20.39       8.83      36.79
H      19.95       9.55      34.58
H      19.93       8.34      32.38
H      24.03       9.23      31.94
H      24.47       6.94      31.48
H      20.37       6.06      31.92
H      17.74      -7.96      30.13
H      20.00      -7.31      30.46
H      17.83     -10.13      33.74
H      20.10      -9.48      34.08
H      22.70     -10.00      33.78
H      23.99     -11.73      32.80
H      23.79      -9.77      29.07
H      22.51      -8.03      30.06
H      23.99      -6.44      31.78
H      24.42      -4.17      31.29
H      20.38      -3.23      32.03
H      19.94      -5.50      32.52
H      19.92      -6.82      34.66
H      24.02      -7.61      34.10
H      24.46      -6.86      36.30
H      20.36      -6.07      36.86
H      17.75      -0.59      49.92
H      20.01      -0.63      49.19
H      17.84       3.63      49.96
H      20.10       3.59      49.23
H      22.69       3.59      49.84
H      23.98       3.60      51.84
H      23.81      -0.61      51.98
H      22.52      -0.63      49.98
H      23.99       0.08      47.75
H      24.42      -1.47      46.02
H      20.37      -1.32      44.86
H      19.94       0.24      46.59
H      19.93       2.75      46.63
H      24.03       2.68      47.62
H      24.47       4.21      45.87
H      20.37       4.28      44.89
H       7.56     -10.11      33.65
H       5.30      -9.49      34.04
H       7.55      -7.93      30.04
H       5.29      -7.30      30.43
H       2.75      -8.00      30.08
H       1.46      -9.74      29.11
H       1.42     -11.78      32.79
H       2.72     -10.04      33.77
H       1.34      -7.68      34.14
H       0.92      -6.92      36.34
H       5.02      -6.08      36.85
H       5.44      -6.83      34.65
H       5.40      -5.52      32.51
H       1.34      -6.44      31.85
H       0.90      -4.16      31.39
H       4.97      -3.24      32.04
H       7.65      10.76      30.07
H       5.40      10.09      30.39
H       7.48      13.03      33.62
H       5.22      12.36      33.94
H       2.61      12.82      33.64
H       1.35      14.55      32.60
H       1.66      12.55      28.90
H       2.91      10.82      29.95
H       1.38       9.25      31.68
H       0.96       6.97      31.23
H       4.99       6.05      32.03
H       5.42       8.33      32.48
H       5.45       9.70      34.58
H       1.34      10.43      34.01
H       0.91       9.68      36.21
H       5.02       8.97      36.79
H       7.56       3.54      50.03
H       5.30       3.56      49.28
H       7.56      -0.68      49.90
H       5.30      -0.66      49.16
H       2.78      -0.61      49.95
H       1.48      -0.59      51.95
H       1.41       3.63      51.86
H       2.71       3.61      49.87
H       1.36       2.74      47.63
H       0.94       4.27      45.87
H       5.04       4.30      44.91
H       5.46       2.77      46.67
H       5.41       0.27      46.58
H       1.35       0.14      47.72
H       0.92      -1.40      45.98
H       4.98      -1.28      44.85
H      35.54      45.05      23.60
H      33.28      44.43      23.21
H      35.52      42.87      27.21
H      33.26      42.25      26.82
H      30.73      42.93      27.17
H      29.43      44.67      28.14
H      29.40      46.72      24.46
H      30.70      44.98      23.48
H      29.32      42.62      23.11
H      28.90      41.87      20.91
H      33.00      41.02      20.40
H      33.42      41.77      22.60
H      33.39      40.46      24.74
H      29.32      41.38      25.39
H      28.89      39.09      25.85
H      32.96      38.19      25.20
H      35.53      24.03      27.25
H      33.27      24.69      26.90
H      35.51      22.02      23.54
H      33.25      22.68      23.20
H      30.72      22.03      23.63
H      29.43      20.32      24.65
H      29.39      22.49      28.26
H      30.68      24.20      27.25
H      29.32      25.71      25.38
H      28.90      27.99      25.82
H      33.00      28.85      25.36
H      33.43      26.56      24.92
H      33.38      25.38      22.71
H      29.31      24.34      23.17
H      28.88      25.08      20.96
H      32.94      26.12      20.50
H      35.53      31.39       7.24
H      33.27      31.37       7.98
H      35.53      35.61       7.35
H      33.27      35.59       8.09
H      30.74      35.54       7.30
H      29.45      35.52       5.31
H      29.39      31.31       5.39
H      30.69      31.33       7.38
H      29.32      32.20       9.61
H      28.90      30.67      11.37
H      33.00      30.63      12.34
H      33.43      32.16      10.59
H      33.39      34.67      10.67
H      29.33      34.80       9.53
H      28.89      36.34      11.27
H      32.95      36.21      12.41
H      49.19      28.53      18.19
H      53.81      25.57      16.46
H      49.20      29.97      15.72
H      52.24      26.18      13.37
H      52.50      29.28      13.26
H      52.49      26.08      18.84
H      49.22      34.95      24.27
H      53.83      34.92      27.71
H      49.23      32.09      24.25
H      52.25      31.95      28.73
H      52.51      30.30      26.10
H      52.51      36.74      26.09
H      49.20      37.01      15.65
H      53.81      40.00      13.96
H      49.21      38.42      18.14
H      52.24      42.36      16.03
H      52.50      40.90      18.77
H      52.50      37.68      13.20
H      21.25       6.39      39.07
H      25.85       9.37      40.83
H      21.26       4.95      41.54
H      24.28       8.76      43.91
H      24.54       5.65      44.02
H      24.55       8.86      38.44
H      21.24      -0.03      32.99
H      25.84      -0.00      29.54
H      21.25       2.83      33.00
H      24.27       2.97      28.53
H      24.54       4.62      31.17
H      24.53      -1.82      31.16
H      21.23      -2.08      41.60
H      25.84      -5.07      43.29
H      21.23      -3.50      39.12
H      24.27      -7.44      41.22
H      24.53      -5.97      38.48
H      24.53      -2.76      44.05
H       4.16      -3.50      39.11
H      55.45      -6.43      40.83
H       4.14      -2.04      41.58
H       1.07      -5.82      43.92
H       0.82      -2.70      44.01
H       0.84      -5.92      38.45
H       4.14       2.84      32.99
H      55.44       2.81      29.59
H       4.12      -0.03      33.03
H       1.06      -0.18      28.58
H       0.80      -1.81      31.25
H       0.84       4.62      31.20
H       4.19       4.96      41.54
H      55.47       7.90      43.19
H       4.17       6.36      39.03
H       1.08      10.27      41.11
H       0.84       8.76      38.37
H       0.87       5.60      43.96
H      32.13      38.44      18.14
H      27.49      41.36      16.42
H      32.11      36.98      15.68
H      29.04      40.75      13.33
H      28.79      37.63      13.25
H      28.82      40.86      18.80
H      32.14      32.10      24.24
H      27.50      32.13      27.64
H      32.12      34.97      24.21
H      29.05      35.12      28.65
H      28.80      36.74      25.98
H      28.83      30.32      26.01
H      32.13      29.98      15.71
H      27.49      27.02      14.03
H      32.10      28.57      18.21
H      29.03      24.65      16.12
H      28.78      26.14      18.86
H      28.82      29.33      13.28
H      39.05      24.70      24.30
H      39.33      20.35      27.96
H      41.95      24.32      23.68
H      42.29      20.07      27.31
H      43.61      21.34      24.60
H      37.62      22.76      27.36
H      39.06      42.17      24.47
H      39.35      47.50      26.42
H      41.96      41.81      25.11
H      42.32      47.07      26.99
H      43.61      44.06      27.24
H      37.64      45.78      24.60
H      39.07      33.57       9.30
H      39.33      32.62       3.70
H      41.97      34.29       9.29
H      42.30      33.31       3.78
H      43.62      35.02       6.25
H      37.63      31.91       6.10
H      11.09      10.20      32.95
H      11.38      14.57      29.33
H      14.01      10.57      33.57
H      14.34      14.85      29.97
H      15.66      13.56      32.69
H       9.69      12.11      29.91
H      11.09      -7.23      32.77
H      11.36     -12.58      30.83
H      13.99      -6.89      32.14
H      14.33     -12.16      30.27
H      15.64      -9.16      30.01
H       9.65     -10.85      32.63
H      11.09       1.37      47.96
H      11.36       2.30      53.56
H      14.00       0.65      47.97
H      14.33       1.60      53.48
H      15.64      -0.09      51.00
H       9.66       3.03      51.15
H      55.63      14.75      27.21
H      54.72      18.23      31.70
H      52.74      16.36      26.25
H      55.15      20.53      29.10
H      53.61      19.22      25.88
H      55.54      15.63      31.33
H      55.82     -14.51      31.62
H      53.80     -11.77      27.44
H      54.13     -16.73      31.00
H      53.42     -14.70      25.66
H      52.54      46.83      28.86
H       0.72     -11.91      28.42
H      55.80       3.97      54.82
H      53.82      -1.04      54.54
H      54.11      36.61       1.50
H      53.45      30.97       2.41
H      52.54      35.04       3.07
H       0.74      -0.09      54.17
H      27.86      20.10      30.04
H      25.83      17.86      25.57
H      26.17      18.45      31.65
H      25.46      14.86      27.22
H      24.58      16.31      31.08
H      28.70      18.64      26.19
H      27.85     -14.70      25.64
H      25.83      46.69      29.81
H      26.16     -12.48      26.26
H      25.45     -14.53      31.59
H      24.57     -11.91      28.40
H      28.69      46.84      28.83
H      27.83      30.96       2.44
H      25.85      35.97       2.72
H      26.14      30.39       0.22
H      25.48       3.96      54.84
H      24.56      -0.11      54.19
H      28.71      35.03       3.08
C      50.42      28.64      25.65
C      51.44      27.67      25.73
C      51.17      26.31      25.47
C      49.87      25.85      25.16
C      48.86      26.85      25.07
C      49.12      28.21      25.32
C      49.61      24.42      24.65
C      49.85      24.65      23.15
C      48.83      25.15      22.30
C      49.09      25.59      20.99
C      50.39      25.58      20.47
C      51.43      25.10      21.30
C      51.17      24.66      22.61
C      50.49      23.35      25.29
C      48.22      23.89      24.98
C      47.56      22.95      24.15
C      46.23      22.56      24.38
C      45.52      23.05      25.50
C      46.21      23.87      26.42
C      47.54      24.25      26.18
C      50.80      23.37      26.68
C      51.53      22.34      27.30
C      51.96      21.21      26.57
C      51.60      21.13      25.20
C      50.87      22.17      24.59
C      50.42      41.35      20.44
C      51.46      41.82      21.27
C      51.20      42.28      22.57
C      49.88      42.32      23.11
C      48.85      41.82      22.26
C      49.11      41.36      20.95
C      49.63      42.59      24.59
C      49.87      41.18      25.15
C      48.86      40.18      25.06
C      49.12      38.83      25.34
C      50.41      38.39      25.68
C      51.44      39.36      25.76
C      51.17      40.72      25.48
C      50.52      43.68      25.20
C      48.24      43.15      24.90
C      47.55      42.83      26.10
C      46.21      43.23      26.30
C      45.54      44.02      25.35
C      46.27      44.47      24.22
C      47.60      44.07      24.03
C      50.92      44.82      24.46
C      51.68      45.86      25.05
C      52.01      45.84      26.42
C      51.56      44.74      27.18
C      50.82      43.70      26.59
C      50.41      30.49      12.03
C      51.46      30.97      11.21
C      51.19      31.86      10.16
C      49.88      32.31       9.86
C      48.85      31.83      10.72
C      49.11      30.93      11.77
C      49.63      33.46       8.87
C      49.86      34.65       9.82
C      48.85      35.08      10.72
C      49.10      35.99      11.76
C      50.40      36.50      11.97
C      51.43      36.08      11.09
C      51.17      35.17      10.06
C      50.52      33.45       7.63
C      48.24      33.45       8.24
C      47.55      34.64       7.91
C      46.21      34.62       7.45
C      45.54      33.40       7.25
C      46.26      32.20       7.44
C      47.60      32.23       7.88
C      50.92      32.24       7.01
C      51.67      32.22       5.82
C      52.01      33.42       5.16
C      51.57      34.64       5.73
C      50.82      34.64       6.92
C      22.45       6.28      31.61
C      23.50       7.23      31.62
C      23.23       8.59      31.87
C      21.91       9.07      32.11
C      20.89       8.09      32.12
C      21.14       6.73      31.86
C      21.67      10.50      32.62
C      21.91      10.27      34.12
C      20.89       9.70      34.94
C      21.15       9.26      36.25
C      22.45       9.34      36.80
C      23.47       9.89      36.00
C      23.21      10.33      34.69
C      22.55      11.57      31.99
C      20.28      11.04      32.29
C      19.59      11.93      33.17
C      18.25      12.31      32.93
C      17.58      11.88      31.77
C      18.30      11.12      30.82
C      19.63      10.75      31.06
C      22.95      11.51      30.62
C      23.70      12.53      30.01
C      24.04      13.70      30.72
C      23.60      13.81      32.06
C      22.86      12.78      32.67
C      22.44      -6.43      36.82
C      23.49      -6.90      35.99
C      23.22      -7.36      34.69
C      21.90      -7.40      34.15
C      20.87      -6.90      35.00
C      21.13      -6.44      36.31
C      21.65      -7.67      32.66
C      21.89      -6.26      32.11
C      20.88      -5.26      32.20
C      21.13      -3.91      31.92
C      22.43      -3.48      31.58
C      23.46      -4.44      31.50
C      23.19      -5.80      31.77
C      22.54      -8.76      32.05
C      20.26      -8.23      32.36
C      19.57      -7.91      31.16
C      18.23      -8.31      30.95
C      17.57      -9.11      31.91
C      18.29      -9.55      33.03
C      19.63      -9.16      33.23
C      22.95      -9.90      32.80
C      23.70     -10.94      32.21
C      24.03     -10.92      30.84
C      23.58      -9.82      30.07
C      22.84      -8.78      30.66
C      22.45       4.43      45.23
C      23.50       3.96      46.06
C      23.23       3.05      47.10
C      21.91       2.61      47.40
C      20.88       3.09      46.54
C      21.14       3.99      45.49
C      21.66       1.46      48.38
C      21.89       0.28      47.44
C      20.88      -0.15      46.53
C      21.13      -1.07      45.50
C      22.43      -1.58      45.29
C      23.46      -1.16      46.16
C      23.19      -0.25      47.20
C      22.54       1.47      49.63
C      20.27       1.48      49.02
C      19.57       0.28      49.35
C      18.24       0.30      49.80
C      17.57       1.53      50.00
C      18.29       2.72      49.82
C      19.63       2.69      49.37
C      22.94       2.68      50.25
C      23.70       2.70      51.44
C      24.04       1.50      52.10
C      23.59       0.29      51.53
C      22.85       0.28      50.34
C       2.90      -3.48      31.63
C       1.87      -4.44      31.57
C       2.13      -5.80      31.83
C       3.44      -6.27      32.14
C       4.46      -5.27      32.21
C       4.20      -3.92      31.94
C       3.69      -7.69      32.67
C       3.46      -7.43      34.16
C       4.49      -6.93      35.00
C       4.24      -6.46      36.31
C       2.94      -6.46      36.83
C       1.89      -6.95      36.02
C       2.15      -7.41      34.71
C       2.80      -8.77      32.06
C       5.08      -8.23      32.33
C       5.75      -9.16      33.18
C       7.08      -9.55      32.95
C       7.77      -9.08      31.81
C       7.08      -8.28      30.88
C       5.74      -7.90      31.12
C       2.46      -8.77      30.68
C       1.70      -9.81      30.09
C       1.30     -10.93      30.86
C       1.67     -10.97      32.21
C       2.43      -9.93      32.79
C       2.93       9.28      36.73
C       1.88       9.74      35.90
C       2.14      10.19      34.59
C       3.46      10.25      34.06
C       4.49       9.78      34.92
C       4.24       9.32      36.23
C       3.71      10.50      32.57
C       3.48       9.08      32.04
C       4.49       8.08      32.15
C       4.23       6.72      31.90
C       2.94       6.28      31.55
C       1.92       7.25      31.44
C       2.18       8.61      31.69
C       2.81      11.57      31.93
C       5.09      11.06      32.26
C       5.81      10.71      31.09
C       7.14      11.13      30.88
C       7.78      11.96      31.82
C       7.04      12.43      32.92
C       5.71      12.02      33.11
C       2.38      12.71      32.65
C       1.64      13.74      32.04
C       1.33      13.69      30.66
C       1.82      12.60      29.91
C       2.56      11.57      30.54
C       2.92      -1.52      45.26
C       1.88      -1.10      46.13
C       2.15      -0.19      47.17
C       3.45       0.31      47.42
C       4.47      -0.12      46.52
C       4.21      -1.03      45.48
C       3.70       1.48      48.39
C       3.47       2.65      47.42
C       4.51       3.12      46.57
C       4.26       4.02      45.52
C       2.96       4.47      45.24
C       1.91       4.00      46.06
C       2.16       3.10      47.12
C       2.81       1.49      49.63
C       5.09       1.46      49.03
C       5.75       2.65      49.42
C       7.08       2.64      49.88
C       7.78       1.43      50.03
C       7.09       0.22      49.79
C       5.75       0.24      49.34
C       2.47       0.30      50.32
C       1.72       0.31      51.51
C       1.30       1.52      52.09
C       1.67       2.72      51.45
C       2.43       2.71      50.27
C      30.89      38.42      25.60
C      29.86      39.38      25.67
C      30.12      40.74      25.41
C      31.43      41.21      25.10
C      32.45      40.22      25.03
C      32.19      38.86      25.30
C      31.67      42.63      24.58
C      31.44      42.38      23.08
C      32.47      41.87      22.24
C      32.22      41.41      20.94
C      30.91      41.40      20.42
C      29.87      41.89      21.23
C      30.13      42.35      22.53
C      30.78      43.71      25.19
C      33.06      43.18      24.92
C      33.73      44.10      24.07
C      35.06      44.49      24.30
C      35.75      44.02      25.44
C      35.05      43.22      26.37
C      33.72      42.85      26.13
C      30.43      43.70      26.57
C      29.68      44.74      27.15
C      29.27      45.86      26.39
C      29.65      45.91      25.04
C      30.41      44.87      24.46
C      30.88      25.64      20.50
C      29.84      25.10      21.30
C      30.11      24.65      22.61
C      31.41      24.68      23.17
C      32.43      25.24      22.34
C      32.18      25.69      21.04
C      31.66      24.42      24.66
C      31.44      25.85      25.19
C      32.47      26.82      25.18
C      32.22      28.18      25.43
C      30.92      28.65      25.67
C      29.87      27.70      25.69
C      30.13      26.34      25.44
C      30.77      23.36      25.29
C      33.05      23.85      24.96
C      33.72      24.12      26.18
C      35.05      23.71      26.40
C      35.74      22.96      25.42
C      35.04      22.57      24.27
C      33.71      22.97      24.06
C      30.43      22.17      24.60
C      29.67      21.14      25.21
C      29.27      21.24      26.56
C      29.64      22.39      27.27
C      30.40      23.41      26.67
C      30.89      36.46      11.99
C      29.86      36.03      11.12
C      30.12      35.13      10.08
C      31.43      34.62       9.83
C      32.44      35.05      10.73
C      32.19      35.96      11.77
C      31.67      33.46       8.86
C      31.44      32.29       9.83
C      32.47      31.81      10.68
C      32.22      30.91      11.74
C      30.91      30.47      12.01
C      29.87      30.93      11.18
C      30.13      31.83      10.13
C      30.78      33.44       7.62
C      33.06      33.47       8.22
C      33.73      32.28       7.84
C      35.06      32.29       7.38
C      35.75      33.50       7.22
C      35.06      34.71       7.46
C      33.73      34.69       7.91
C      30.44      34.64       6.93
C      29.69      34.63       5.74
C      29.27      33.41       5.16
C      29.65      32.21       5.80
C      30.41      32.23       6.98
C      51.48      28.44      14.84
C      50.76      28.93      15.96
C      50.76      28.22      17.18
C      51.48      27.00      17.31
C      52.18      26.51      16.18
C      52.16      27.20      14.96
C      51.60      29.18      13.67
C      51.59      26.36      18.53
C      51.50      32.09      26.03
C      50.79      32.81      25.04
C      50.79      34.23      25.05
C      51.50      34.95      26.04
C      52.21      34.22      27.03
C      52.18      32.81      27.04
C      51.61      30.70      25.98
C      51.61      36.33      25.99
C      51.49      39.96      17.26
C      50.77      38.74      17.12
C      50.77      38.04      15.89
C      51.49      38.54      14.77
C      52.19      39.76      14.91
C      52.17      40.48      16.13
C      51.60      40.60      18.48
C      51.60      37.80      13.60
C      23.53       6.49      42.44
C      22.82       6.00      41.31
C      22.82       6.71      40.09
C      23.53       7.93      39.96
C      24.23       8.43      41.09
C      24.21       7.73      42.32
C      23.64       5.75      43.61
C      23.64       8.58      38.74
C      23.52       2.83      31.23
C      22.81       2.10      32.21
C      22.80       0.69      32.21
C      23.52      -0.03      31.22
C      24.22       0.70      30.22
C      24.20       2.11      30.21
C      23.64       4.21      31.28
C      23.63      -1.41      31.26
C      23.51      -5.03      40.00
C      22.80      -3.82      40.13
C      22.79      -3.12      41.36
C      23.51      -3.61      42.48
C      24.22      -4.84      42.35
C      24.20      -5.55      41.13
C      23.63      -5.67      38.77
C      23.63      -2.88      43.66
C       1.85      -3.57      42.45
C       2.57      -3.08      41.34
C       2.58      -3.79      40.12
C       1.86      -5.01      39.98
C       1.14      -5.50      41.11
C       1.16      -4.80      42.33
C       1.73      -2.82      43.62
C       1.75      -5.66      38.76
C       1.83      -0.03      31.27
C       2.56       0.70      32.25
C       2.57       2.12      32.23
C       1.85       2.83      31.24
C       1.13       2.10      30.26
C       1.14       0.69      30.26
C       1.71      -1.41      31.33
C       1.74       4.22      31.28
C       1.87       7.87      39.91
C       2.61       6.66      40.05
C       2.61       5.97      41.28
C       1.89       6.46      42.40
C       1.17       7.68      42.25
C       1.18       8.38      41.03
C       1.75       8.50      38.67
C       1.77       5.73      43.57
C      29.82      38.50      14.80
C      30.55      38.01      15.92
C      30.56      38.73      17.14
C      29.83      39.94      17.27
C      29.12      40.43      16.15
C      29.13      39.73      14.92
C      29.70      37.75      13.64
C      29.72      40.59      18.49
C      29.83      34.96      25.96
C      30.56      34.24      24.98
C      30.57      32.82      25.00
C      29.84      32.10      25.99
C      29.13      32.83      26.97
C      29.14      34.24      26.97
C      29.70      36.34      25.90
C      29.73      30.72      25.94
C      29.81      27.05      17.33
C      30.54      28.26      17.19
C      30.55      28.96      15.96
C      29.83      28.46      14.84
C      29.11      27.25      14.98
C      29.13      26.54      16.20
C      29.69      26.42      18.56
C      29.72      29.20      13.67
C      42.01      22.22      25.54
C      41.33      23.43      25.22
C      39.95      23.57      25.51
C      39.24      22.50      26.12
C      39.92      21.30      26.43
C      41.29      21.16      26.13
C      43.35      22.07      25.22
C      37.90      22.65      26.41
C      42.02      44.47      26.01
C      41.34      43.60      25.12
C      39.97      43.78      24.85
C      39.25      44.84      25.47
C      39.93      45.71      26.35
C      41.31      45.52      26.63
C      43.36      44.26      26.30
C      37.91      45.02      25.19
C      42.02      33.75       6.53
C      41.34      33.41       7.73
C      39.97      33.09       7.71
C      39.25      33.11       6.49
C      39.93      33.45       5.29
C      41.30      33.78       5.31
C      43.36      34.11       6.56
C      37.91      32.79       6.47
C      14.06      12.69      31.73
C      13.38      11.48      32.04
C      12.01      11.34      31.75
C      11.29      12.41      31.15
C      11.97      13.61      30.85
C      13.34      13.76      31.14
C      15.40      12.84      32.05
C       9.95      12.26      30.85
C      14.05      -9.55      31.25
C      13.37      -8.68      32.13
C      11.99      -8.85      32.40
C      11.27      -9.91      31.78
C      11.95     -10.78      30.90
C      13.32     -10.60      30.62
C      15.38      -9.35      30.95
C       9.93     -10.09      32.05
C      14.05       1.17      50.72
C      13.37       1.52      49.53
C      12.00       1.84      49.55
C      11.28       1.82      50.77
C      11.95       1.48      51.97
C      13.33       1.14      51.94
C      15.39       0.82      50.69
C       9.94       2.14      50.79
C      53.97      18.39      27.73
C      54.12      17.04      27.35
C      54.75      16.10      28.20
C      55.22      16.48      29.48
C      55.04      17.83      29.88
C      54.46      18.78      29.01
C      53.40      19.31      26.85
C      55.78      15.56      30.37
C      53.78     -15.75      28.33
C      54.64     -15.75      29.46
C      55.46     -14.64      29.76
C      55.43     -13.47      28.95
C      54.54     -13.46      27.84
C      53.75     -14.58      27.52
C      52.96      47.30      28.08
C       0.32     -12.38      29.20
C      53.78      33.81       1.98
C      54.64      34.79       1.42
C      55.46      34.50       0.30
C      55.43       1.14      55.25
C      54.56      32.24       0.24
C      53.76      32.52       1.38
C      52.96      34.14       3.06
C       0.33       0.81      54.18
C      25.81      16.64      29.47
C      26.68      17.61      30.04
C      27.50      18.43      29.22
C      27.46      18.32      27.81
C      26.58      17.36      27.24
C      25.78      16.53      28.05
C      24.99      15.87      30.29
C      28.29      19.08      26.98
C      25.81     -13.47      28.92
C      26.67     -13.46      27.80
C      27.50     -14.58      27.50
C      27.46     -15.74      28.30
C      26.58     -15.76      29.41
C      25.78     -14.64      29.73
C      24.99     -12.37      29.18
C      28.29      47.31      28.06
C      25.81       1.12      55.28
C      26.66      32.21       0.29
C      27.49      32.50       1.40
C      27.46      33.79       2.00
C      26.59      34.76       1.46
C      25.79      34.48       0.33
C      24.98       0.79      54.20
C      28.30      34.12       3.07
N      44.22      22.89      25.68
N      52.61      20.25      27.23
N      50.59      29.95      25.77
N      50.56      26.14      19.27
N      44.24      44.27      25.37
N      52.73      46.86      26.89
N      50.58      40.80      19.24
N      50.59      37.08      25.80
N      44.24      33.29       7.03
N      52.73      33.33       4.03
N      50.58      29.73      13.11
N      50.57      37.27      13.04
N      16.27      12.03      31.57
N      24.76      14.62      30.08
N      22.61       4.97      31.49
N      22.62       8.79      38.00
N      16.26      -9.35      31.89
N      24.76     -11.94      30.37
N      22.61      -5.88      38.02
N      22.60      -2.16      31.45
N      16.26       1.63      50.23
N      24.76       1.60      53.22
N      22.62       5.20      44.15
N      22.60      -2.34      44.21
N       9.08      -9.22      31.63
N       0.57     -11.94      30.38
N       2.73      -2.16      31.51
N       2.77      -5.90      38.03
N       9.09      12.21      31.80
N       0.67      14.65      30.00
N       2.77       8.74      37.93
N       2.77       4.97      31.45
N       9.09       1.34      50.26
N       0.57       1.62      53.21
N       2.75      -2.29      44.18
N       2.80       5.22      44.15
N      37.06      44.17      25.62
N      28.54      46.87      26.87
N      30.73      37.10      25.73
N      30.75      40.84      19.22
N      37.04      22.73      25.46
N      28.54      20.32      27.20
N      30.71      26.19      19.30
N      30.76      29.96      25.78
N      37.06      33.59       7.00
N      28.54      33.31       4.04
N      30.72      37.22      13.07
N      30.75      29.71      13.09
O      50.14      28.78      18.26
O      50.15      30.15      15.91
O      52.87      25.33      16.26
O      52.88      26.69      13.91
O      50.17      34.88      24.02
O      50.18      32.17      24.01
O      52.89      34.87      28.02
O      52.89      32.16      28.01
O      50.15      36.82      15.84
O      50.16      38.17      18.20
O      52.88      40.29      13.85
O      52.88      41.64      16.21
O      22.20       6.14      39.01
O      22.21       4.78      41.35
O      24.92       9.60      41.02
O      24.92       8.24      43.37
O      22.19       0.04      33.24
O      22.20       2.75      33.25
O      24.91       0.05      29.24
O      24.91       2.76      29.25
O      22.18      -1.90      41.42
O      22.18      -3.24      39.06
O      24.91      -5.36      43.40
O      24.91      -6.71      41.05
O       3.21      -3.24      39.04
O       3.19      -1.86      41.38
O       0.45      -6.67      41.03
O       0.44      -5.30      43.37
O       3.19       2.77      33.25
O       3.17       0.06      33.28
O       0.44       2.75      29.28
O       0.42       0.04      29.30
O       3.25       4.76      41.34
O       3.23       6.09      38.98
O       0.47       8.20      43.30
O       0.45       9.53      40.94
O      31.19      38.17      18.21
O      31.17      36.80      15.88
O      28.42      41.60      16.22
O      28.41      40.23      13.88
O      31.20      32.17      23.98
O      31.17      34.88      23.95
O      28.43      32.18      27.95
O      28.42      34.90      27.93
O      31.18      30.17      15.90
O      31.15      28.83      18.26
O      28.42      26.72      13.92
O      28.40      25.39      16.28
O      39.34      24.75      25.24
O      41.98      24.48      24.65
O      39.25      20.25      26.98
O      41.90      19.97      26.42
O      39.35      42.95      23.96
O      41.99      42.58      24.49
O      39.26      46.71      26.99
O      41.92      46.35      27.52
O      39.36      32.73       8.87
O      42.00      33.37       8.93
O      39.25      33.51       4.11
O      41.91      34.14       4.15
O      11.39      10.15      32.02
O      14.03      10.42      32.60
O      11.29      14.67      30.30
O      13.95      14.94      30.87
O      11.38      -8.02      33.29
O      14.02      -7.65      32.76
O      11.28     -11.78      30.26
O      13.93     -11.43      29.74
O      11.39       2.20      48.39
O      14.03       1.56      48.33
O      11.28       1.41      53.15
O      13.93       0.78      53.11
O      54.84      14.80      27.78
O      53.68      16.60      26.13
O      55.50      18.26      31.09
O      54.36      20.07      29.44
O       0.40     -14.74      30.81
O      54.75     -16.87      30.24
O      54.46     -12.36      27.03
O      52.89     -14.49      26.47
O       0.38       3.39      55.42
O      54.74      36.03       1.99
O      54.49      -1.09      55.26
O      52.91      31.55       1.83
O      28.37      19.29      29.83
O      26.79      17.73      31.39
O      26.50      17.21      25.88
O      24.93      15.65      27.44
O      28.37     -14.47      26.45
O      26.78     -12.35      27.02
O      26.50     -16.86      30.22
O      24.92     -14.73      30.79
O      28.35      31.54       1.84
O      26.76      -1.10      55.27
O      26.52      36.02       1.99
O      24.94       3.37      55.42
