23

Ni       6.81       9.38      20.45
Ni       3.60      10.13      20.30
C       4.81       7.94      18.66
C       4.84       8.85      22.65
C       7.53      11.69      22.16
C       7.74      11.10      18.21
C       3.42      12.69      21.73
O       3.28      11.39      21.83
O       8.03      10.80      21.34
O       2.91      11.47      18.93
C       3.64      11.97      17.93
Ni       5.75      12.47      19.92
H       5.42      10.41      19.04
O       4.08      13.24      20.73
O       6.61      12.54      21.76
O       4.81      12.56      18.15
O       7.78       9.86      18.68
O       7.56      12.11      19.05
O       5.74       7.78      19.60
O       3.72       8.67      18.89
O       6.12       8.88      22.34
O       3.94       8.69      21.70
O       5.41      10.58      20.00
