23

O      10.22       4.04      65.46
Ni       7.86       6.59      67.41
O      10.88       3.05      67.37
Ni      10.69       5.96      66.02
C       9.76       8.75      66.30
C       8.30       6.30      70.32
Ni       9.69       4.23      68.57
H      10.01       6.46      68.11
C       8.11       6.30      64.48
C       6.90       3.83      67.76
C      12.42       5.40      68.52
O      10.80       7.97      66.50
O       8.53       8.41      66.71
O       8.10       7.16      69.32
O       9.38       6.62      64.54
O       7.46       5.90      65.55
C      10.78       3.04      66.06
O       6.73       5.08      68.11
O       9.58       5.82      67.50
O       8.63       5.02      70.12
O       8.08       3.26      67.85
O      11.43       4.96      69.30
O      12.34       5.35      67.19
