23

O       4.56       6.22      35.49
O       4.61       3.95      37.32
C       5.69       1.44      34.35
C       5.71       4.37      32.40
O       9.19       5.80      35.49
O       5.95       5.75      37.83
C       9.06       3.11      36.90
Ni       4.78       4.17      35.26
Ni       7.49       5.58      36.50
Ni       7.85       3.39      34.19
O       4.75       2.09      35.01
O       6.96       1.63      34.65
O       9.30       3.16      35.59
O       4.67       4.44      33.20
O       6.61       3.44      32.59
O       8.44       4.12      37.53
O       8.73       5.03      33.41
O       6.66       4.22      35.43
H       6.66       3.50      36.11
C       5.43       7.04      34.93
C       5.13       4.79      38.20
C       9.21       5.96      34.19
O       6.67       7.08      35.37
