20

N      17.51      18.14       5.03
N      17.55      11.05       4.72
C      17.76      17.39       6.12
C      17.74      16.00       6.11
C      17.45      15.33       4.91
C      17.18      16.12       3.77
C      17.23      17.51       3.87
C      17.80      11.80       3.63
C      17.76      13.19       3.65
C      17.45      13.86       4.84
C      17.19      13.07       5.98
C      17.25      11.68       5.88
H      17.99      17.94       7.03
H      17.97      15.46       7.02
H      16.93      15.66       2.82
H      17.07      18.15       3.01
H      18.05      11.25       2.72
H      18.00      13.74       2.74
H      16.93      13.52       6.93
H      17.08      11.04       6.74
