27

C      15.96       8.61       2.84
H       9.20       4.04      -0.06
H      11.52       4.82      -0.71
H      10.11       8.87      -0.80
H       7.82       8.09      -0.11
H      11.63       7.62       1.47
H      13.32       8.23       3.18
H      16.37       8.34       0.17
H      14.66       7.81      -1.59
O       6.09       6.41       0.50
O       6.82       4.29       0.45
O      12.19       7.30      -1.17
O      15.62       8.61       4.07
O      17.18       8.84       2.47
C       7.01       5.56       0.33
C       8.38       6.02      -0.04
C       9.42       5.09      -0.22
C      10.70       5.51      -0.58
C      10.92       6.88      -0.78
C       9.90       7.82      -0.62
C       8.63       7.38      -0.24
C      13.06       7.65      -0.15
C      12.66       7.78       1.18
C      13.61       8.12       2.14
C      14.95       8.32       1.79
C      15.33       8.20       0.44
C      14.39       7.88      -0.54
