20

N      17.38       1.32      14.46
N      17.35       8.40      14.77
H      16.90       1.52      12.46
H      16.92       4.00      12.47
H      17.96       3.79      16.67
H      17.82       1.30      16.48
H      16.84       8.20      16.77
H      16.89       5.72      16.75
H      17.96       5.93      12.56
H      17.81       8.41      12.75
C      17.13       2.06      13.37
C      17.15       3.45      13.39
C      17.44       4.12      14.58
C      17.71       3.33      15.72
C      17.66       1.95      15.62
C      17.09       7.65      15.86
C      17.13       6.26      15.84
C      17.44       5.60      14.65
C      17.70       6.39      13.52
C      17.64       7.77      13.62
