20

N       9.92      10.26       3.57
N       9.79       9.51      -3.57
H      10.02       8.19       3.67
H       9.94       7.83       1.25
H       9.79      12.32       3.24
H       9.76      12.14       0.78
H       9.69      11.58      -3.67
H       9.76      11.94      -1.25
H       9.92       7.45      -3.24
H       9.95       7.63      -0.78
C       9.96       9.04       2.99
C       9.93       8.85       1.61
C       9.87       9.96       0.74
C       9.84      11.34       2.75
C       9.81      11.22       1.36
C       9.75      10.73      -2.99
C       9.78      10.91      -1.61
C       9.84       9.81      -0.74
C       9.86       8.43      -2.75
C       9.89       8.54      -1.36
