20

C       7.16       7.30      12.09
N       6.83       7.32       7.77
H       8.87       6.95       7.74
H       9.16       6.93      10.17
H       4.80       7.74       8.05
N       7.38       7.29      14.93
H       4.90       7.76      10.50
H       5.33       7.66      14.97
H       5.05       7.68      12.54
H       9.40       6.86      14.65
H       9.30       6.84      12.21
C       8.02       7.10       8.39
C       8.16       7.10       9.77
C       5.75       7.55       8.56
C       5.82       7.56       9.95
C       7.04       7.31      10.62
C       6.19       7.51      14.32
C       6.05       7.51      12.93
C       8.46       7.06      14.14
C       8.38       7.05      12.76
