776

Cd       1.08      23.74       2.04
Cd       2.29       0.24      24.07
Cd      14.54      11.24      10.54
Cd      13.23      12.74      13.67
Cd      14.49       1.26      23.12
Cd      13.28      24.76       1.09
Cd       1.03      13.76      14.62
Cd       2.34      12.26      11.49
H       2.83      22.37      22.86
H       4.34      18.51      20.96
H       5.98      17.91      20.60
H       5.82      16.35      22.54
H       4.25      17.02      22.99
H       3.95      14.85      21.73
H       3.26      16.19      20.80
H       4.83      15.52      20.34
H       4.14      20.10       1.15
H       6.18      17.73      24.41
H       5.63      18.17       0.85
H       6.44      20.64       1.65
H       8.50      21.97       2.05
H      10.55      21.50       0.73
H       9.77      16.73      25.13
H       8.14      16.46       0.20
H       7.87      15.48      23.06
H       9.59      15.76      22.81
H       8.41      13.92      25.00
H       9.15      13.36      23.49
H      10.14      14.18      24.71
H      10.73      18.64      23.45
H      11.74      19.49      24.65
H      12.42      21.81      24.29
H      11.17      23.89      20.76
H      10.46      19.27      19.83
H      10.81      18.26      21.24
H       8.12      18.37      19.77
H       8.47      17.36      21.17
H      10.30      16.16      19.82
H       8.71      15.99      19.06
H       9.89      17.15      18.41
H       9.81      22.72      19.10
H       9.27      21.06      19.34
H       8.80      24.46      20.84
H       6.65       0.30      21.77
H       4.68      23.79      21.85
H       7.81      19.78      17.97
H       7.15      21.43      17.86
H       5.48      18.86      18.14
H       4.82      20.48      18.03
H       5.76      20.76      15.72
H       6.49      19.14      15.80
H       4.72      19.32      15.80
H       4.58      20.38      20.36
H       3.56      21.79      20.71
H       1.11       0.74       4.48
H      15.60       0.77      10.75
H      14.73      24.86       9.49
H       2.09      24.87       9.89
H       1.25      23.99       8.61
H       0.10      22.53      10.29
H       1.85      22.48      10.57
H       0.82      23.45      11.63
H      12.67       1.10       5.67
H      12.11       1.72       7.88
H      13.19       1.32       9.22
H      13.18       3.91       6.49
H      13.65       6.32       6.91
H      14.31       7.07       9.19
H      12.49       3.59      12.54
H      11.63       3.57      11.00
H      11.72       1.06      10.98
H      12.47       1.08      12.58
H       9.95       0.76      12.74
H      10.44       2.27      13.53
H       9.70       2.31      11.92
H      14.59       4.70      12.11
H      13.93       6.33      11.88
H      15.31       8.18      11.58
H       3.71       7.78      10.28
H       0.64       3.83      12.84
H       0.84       2.33      11.92
H       3.31       2.60      11.96
H       3.16       4.17      12.75
H       2.27       1.50      14.02
H       3.72       2.41      14.46
H       2.12       3.09      14.79
H       3.94       4.21      10.55
H       4.66       5.69       9.88
H       3.13       6.59       7.73
H       2.31       5.81       5.51
H       1.87       3.40       5.14
H       5.01       1.60       7.93
H       5.61       2.65       9.23
H       4.41      24.84       9.61
H       4.98       0.87      10.91
H       7.32       0.84       9.88
H       6.77      24.20      10.27
H       6.73      24.78       8.59
H       2.85       0.91       6.02
H       2.55       0.77       7.77
H      12.69       9.87      14.87
H      11.17       6.01      16.78
H       9.54       5.41      17.14
H       9.70       3.85      15.19
H      11.27       4.52      14.75
H      11.56       2.35      16.01
H      12.26       3.69      16.94
H      10.68       3.02      17.40
H      11.49       7.60      11.43
H       9.34       5.23      13.32
H       9.99       5.67      11.73
H       9.18       8.14      10.93
H       7.12       9.47      10.53
H       5.07       9.00      11.85
H       5.75       4.23      12.61
H       7.48       3.96      12.38
H       7.64       2.98      14.68
H       5.93       3.26      14.93
H       7.11       1.42      12.74
H       6.37       0.86      14.25
H       5.38       1.68      13.03
H       4.79       6.14      14.28
H       3.78       6.99      13.09
H       3.09       9.31      13.44
H       4.35      11.39      16.98
H       5.05       6.77      17.91
H       4.70       5.76      16.50
H       7.39       5.87      17.96
H       7.04       4.86      16.57
H       5.22       3.66      17.92
H       6.81       3.49      18.68
H       5.63       4.65      19.33
H       5.70      10.22      18.64
H       6.25       8.56      18.40
H       6.72      11.96      16.90
H       8.86      12.80      15.97
H      10.84      11.29      15.89
H       7.71       7.28      19.77
H       8.37       8.93      19.88
H      10.03       6.36      19.60
H      10.70       7.98      19.71
H       9.75       8.26      22.02
H       9.02       6.64      21.94
H      10.79       6.82      21.94
H      10.94       7.88      17.38
H      11.96       9.29      17.03
H      14.51      13.24       8.10
H       0.03      13.27       1.83
H       0.89      12.36       3.09
H      13.53      12.37       2.69
H      14.37      11.49       3.97
H      15.52      10.03       2.29
H      13.77       9.98       2.01
H      14.81      10.95       0.95
H       2.95      13.60       6.91
H       3.51      14.22       4.70
H       2.43      13.82       3.36
H       2.44      16.41       6.09
H       1.97      18.82       5.67
H       1.31      19.57       3.39
H       3.13      16.09       0.04
H       3.99      16.07       1.58
H       3.90      13.56       1.60
H       3.15      13.58       0.00
H       5.57      13.26      25.00
H       5.08      14.77      24.21
H       5.92      14.81       0.66
H       1.03      17.20       0.47
H       1.69      18.83       0.70
H       0.31      20.68       1.00
H      11.92      20.28       2.30
H      14.87      16.33      24.90
H      14.78      14.83       0.66
H      12.32      15.10       0.62
H      12.36      16.67      24.99
H      13.25      14.00      23.71
H      11.79      14.91      23.28
H      13.39      15.59      22.95
H      11.68      16.71       2.03
H      10.97      18.19       2.70
H      12.49      19.09       4.85
H      13.31      18.31       7.07
H      13.75      15.90       7.44
H      10.61      14.10       4.64
H      10.01      15.15       3.35
H      11.22      12.34       2.97
H      10.64      13.37       1.67
H       8.30      13.34       2.70
H       8.86      11.70       2.31
H       8.90      12.28       3.99
H      12.77      13.41       6.56
H      13.07      13.27       4.81
H      12.74       2.63       2.29
H      11.23       6.49       4.20
H       9.59       7.09       4.56
H       9.75       8.65       2.61
H      11.32       7.98       2.17
H      11.62      10.15       3.43
H      12.31       8.81       4.36
H      10.74       9.49       4.82
H      11.43       4.90      24.01
H       9.39       7.27       0.74
H       9.94       6.83      24.31
H       9.13       4.36      23.51
H       7.07       3.03      23.11
H       5.02       3.50      24.43
H       5.80       8.27       0.03
H       7.43       8.54      24.96
H       7.70       9.52       2.10
H       5.98       9.24       2.35
H       7.16      11.08       0.16
H       6.42      11.64       1.67
H       5.43      10.82       0.45
H       4.84       6.36       1.70
H       3.83       5.51       0.51
H       3.15       3.19       0.87
H       4.40       1.11       4.40
H       5.11       5.73       5.33
H       4.76       6.74       3.92
H       7.45       6.63       5.38
H       7.10       7.64       3.99
H       5.27       8.84       5.34
H       6.86       9.01       6.10
H       5.68       7.85       6.75
H       5.76       2.28       6.06
H       6.30       3.94       5.82
H       6.77       0.54       4.32
H       8.92      24.70       3.39
H      10.89       1.21       3.31
H       7.76       5.22       7.19
H       8.42       3.57       7.30
H      10.09       6.14       7.02
H      10.75       4.52       7.13
H       9.81       4.24       9.44
H       9.08       5.86       9.36
H      10.85       5.68       9.36
H      10.99       4.62       4.80
H      12.01       3.21       4.45
H      14.46      24.27      20.68
H      -0.03      24.23      14.41
H       0.84       0.14      15.67
H      13.48       0.13      15.27
H      14.32       1.01      16.55
H      15.47       2.47      14.87
H      13.72       2.52      14.59
H      14.75       1.55      13.53
H       2.90      23.90      19.49
H       3.46      23.28      17.28
H       2.38      23.68      15.94
H       2.39      21.09      18.67
H       1.92      18.68      18.25
H       1.26      17.93      15.97
H       3.08      21.41      12.62
H       3.94      21.43      14.16
H       3.85      23.94      14.18
H       3.10      23.92      12.58
H       5.62      24.24      12.42
H       5.13      22.73      11.63
H       5.87      22.69      13.24
H       0.98      20.30      13.05
H       1.64      18.67      13.28
H       0.26      16.82      13.58
H      11.86      17.22      14.88
H      14.93      21.17      12.32
H      14.73      22.67      13.24
H      12.26      22.40      13.20
H      12.41      20.83      12.41
H      13.30      23.50      11.14
H      11.85      22.59      10.70
H      13.45      21.91      10.37
H      11.63      20.79      14.61
H      10.91      19.31      15.28
H      12.44      18.41      17.43
H      13.26      19.19      19.64
H      13.70      21.60      20.02
H      10.56      23.41      17.22
H       9.96      22.36      15.93
H      11.16       0.16      15.55
H      10.59      24.13      14.25
H       8.25      24.16      15.28
H       8.80       0.80      14.89
H       8.84       0.22      16.57
H      12.72      24.09      19.14
H      13.02      24.23      17.39
H       2.88      15.13      10.29
H       4.40      18.99       8.38
H       6.03      19.59       8.02
H       5.87      21.15       9.97
H       4.30      20.48      10.41
H       4.01      22.65       9.15
H       3.31      21.31       8.22
H       4.89      21.99       7.76
H       4.08      17.40      13.73
H       6.23      19.77      11.83
H       5.58      19.33      13.43
H       6.39      16.86      14.23
H       8.45      15.53      14.63
H      10.50      16.00      13.31
H       9.82      20.77      12.55
H       8.09      21.04      12.78
H       7.93      22.02      10.48
H       9.64      21.74      10.23
H       8.46      23.58      12.42
H       9.20      24.14      10.91
H      10.19      23.32      12.13
H      10.78      18.86      10.87
H      11.79      18.01      12.07
H      12.48      15.69      11.71
H      11.22      13.61       8.18
H      10.52      18.23       7.25
H      10.87      19.24       8.66
H       8.18      19.13       7.20
H       8.53      20.14       8.59
H      10.35      21.34       7.24
H       8.76      21.51       6.48
H       9.94      20.35       5.83
H       9.87      14.78       6.52
H       9.32      16.44       6.76
H       8.85      13.04       8.26
H       6.71      12.20       9.19
H       4.73      13.71       9.27
H       7.86      17.72       5.39
H       7.20      16.07       5.28
H       5.54      18.64       5.56
H       4.87      17.02       5.45
H       5.82      16.74       3.14
H       6.55      18.36       3.22
H       4.78      18.18       3.22
H       4.63      17.12       7.78
H       3.61      15.71       8.13
H       1.06      11.77      17.06
H      15.54      11.73      23.33
H      14.68      12.64      22.07
H       2.04      12.63      22.47
H       1.20      13.51      21.19
H       0.05      14.97      22.87
H       1.80      15.02      23.15
H       0.76      14.05      24.21
H      12.62      11.40      18.25
H      12.06      10.78      20.46
H      13.14      11.18      21.80
H      13.13       8.59      19.07
H      13.60       6.18      19.49
H      14.26       5.43      21.77
H      12.44       8.91      25.12
H      11.58       8.93      23.57
H      11.67      11.44      23.56
H      12.42      11.42      25.16
H      10.00      11.74       0.16
H      10.49      10.23       0.95
H       9.65      10.19      24.50
H      14.54       7.80      24.69
H      13.88       6.17      24.46
H      15.26       4.32      24.16
H       3.65       4.72      22.86
H       0.70       8.67       0.26
H       0.79      10.17      24.50
H       3.25       9.90      24.54
H       3.21       8.33       0.17
H       2.32      11.00       1.44
H       3.78      10.09       1.88
H       2.18       9.41       2.21
H       3.89       8.29      23.13
H       4.60       6.81      22.46
H       3.08       5.91      20.31
H       2.26       6.69      18.09
H       1.82       9.10      17.72
H       4.96      10.91      20.51
H       5.56       9.86      21.81
H       4.35      12.66      22.19
H       4.93      11.63      23.49
H       7.27      11.66      22.46
H       6.71      13.30      22.85
H       6.67      12.72      21.17
H       2.80      11.59      18.60
H       2.50      11.73      20.35
C       2.58      22.15       0.38
C       3.33      21.30      24.67
C       3.41      21.56      23.29
C       4.26      20.82      22.47
C       5.02      19.78      23.06
C       5.25      18.08      21.41
C       4.90      16.78      22.13
C       4.20      15.78      21.20
C       4.98      19.53      24.45
C       4.21      20.28       0.08
C       5.96      18.57      25.09
C       7.37      19.30       0.24
C       7.37      20.38       1.14
C       8.52      21.14       1.35
C       9.67      20.86       0.62
C       9.61      19.79      24.88
C       8.47      18.98      24.74
C       8.81      16.65      24.60
C       8.84      15.52      23.58
C       9.15      14.17      24.23
C      10.84      19.58      24.01
C      11.01      20.75      23.06
C      11.83      21.83      23.39
C      11.89      22.96      22.56
C      12.75      24.12      22.90
C      11.12      23.00      21.38
C      10.30      21.93      21.03
C      10.26      20.81      21.87
C      10.00      18.78      20.70
C       8.92      17.80      20.27
C       9.48      16.72      19.34
C       9.37      22.03      19.83
C       8.01      22.54      20.28
C       7.91      23.83      20.81
C       6.72      24.30      21.36
C       5.61      23.45      21.41
C       5.67      22.15      20.88
C       6.86      21.72      20.27
C       6.96      20.42      18.26
C       5.65      19.85      17.70
C       5.66      19.76      16.17
C       4.46      21.24      21.02
C      14.25       0.52       3.56
C      14.68       0.82       4.94
C       0.37       0.89       5.26
C       0.80       1.13       6.56
C      15.50       1.29       7.57
C       0.01       0.34       9.74
C       1.16      24.34       9.65
C       0.97      23.14      10.59
C      14.12       1.35       7.25
C      13.73       1.09       5.94
C      13.13       1.86       8.27
C      13.39       3.34       8.55
C      13.39       4.26       7.50
C      13.68       5.61       7.73
C      14.03       6.03       9.01
C      14.06       5.13      10.08
C      13.68       3.80       9.84
C      12.34       3.01      11.62
C      11.78       1.63      11.92
C      10.39       1.74      12.57
C      14.59       5.57      11.44
C       0.30       6.16      11.27
C       0.47       7.54      11.31
C       1.70       8.13      10.97
C       1.86       9.59      11.08
C       2.76       7.32      10.56
C       2.63       5.93      10.51
C       1.40       5.36      10.91
C       1.29       3.31      12.12
C       2.70       3.17      12.68
C       2.70       2.51      14.06
C       3.74       5.08       9.92
C       3.33       4.61       8.54
C       3.02       5.53       7.53
C       2.53       5.09       6.30
C       2.30       3.73       6.08
C       2.60       2.79       7.07
C       3.16       3.24       8.28
C       4.89       1.84       9.00
C       5.15       0.61       9.86
C       6.57       0.08       9.64
C       2.27       1.32       6.86
C      13.04       9.65      12.20
C      12.19       8.80      13.07
C      12.10       9.06      14.44
C      11.26       8.32      15.27
C      10.50       7.28      14.68
C      10.27       5.58      16.33
C      10.62       4.28      15.61
C      11.32       3.28      16.54
C      10.54       7.03      13.29
C      11.41       7.78      12.50
C       9.55       6.07      12.65
C       8.25       6.80      12.34
C       8.25       7.88      11.44
C       7.10       8.64      11.23
C       5.95       8.36      11.96
C       5.91       7.29      12.86
C       7.05       6.48      13.00
C       6.71       4.15      13.14
C       6.68       3.02      14.16
C       6.37       1.67      13.51
C       4.67       7.08      13.73
C       4.51       8.25      14.68
C       3.69       9.33      14.35
C       3.63      10.46      15.18
C       2.77      11.62      14.84
C       4.40      10.50      16.36
C       5.22       9.43      16.71
C       5.26       8.31      15.87
C       5.51       6.28      17.04
C       6.60       5.30      17.47
C       6.03       4.22      18.40
C       6.15       9.53      17.91
C       7.51      10.04      17.46
C       7.61      11.33      16.92
C       8.80      11.80      16.38
C       9.91      10.95      16.33
C       9.85       9.65      16.86
C       8.66       9.22      17.47
C       8.56       7.92      19.48
C       9.86       7.35      20.04
C       9.86       7.26      21.57
C      11.06       8.74      16.72
C       1.37      13.02       9.02
C       0.94      13.32       7.64
C      15.25      13.39       7.32
C      14.82      13.63       6.02
C       0.12      13.79       5.01
C      15.61      12.84       2.84
C      14.46      11.84       2.93
C      14.65      10.64       1.99
C       1.50      13.85       5.33
C       1.90      13.59       6.64
C       2.50      14.36       4.31
C       2.24      15.84       4.03
C       2.23      16.76       5.08
C       1.94      18.11       4.85
C       1.59      18.53       3.57
C       1.56      17.63       2.50
C       1.94      16.30       2.74
C       3.28      15.51       0.96
C       3.84      14.13       0.66
C       5.23      14.24       0.01
C       1.04      18.07       1.14
C      15.32      18.66       1.31
C      15.15      20.04       1.27
C      13.93      20.63       1.61
C      13.77      22.09       1.50
C      12.86      19.82       2.02
C      12.99      18.43       2.07
C      14.22      17.86       1.67
C      14.33      15.81       0.46
C      12.81      15.67      25.06
C      12.81      15.01      23.68
C      11.88      17.58       2.66
C      12.29      17.11       4.04
C      12.61      18.03       5.05
C      13.09      17.59       6.28
C      13.32      16.23       6.50
C      13.02      15.29       5.51
C      12.47      15.74       4.30
C      10.73      14.34       3.58
C      10.47      13.11       2.72
C       9.06      12.58       2.94
C      13.35      13.82       5.72
C      12.99       2.85      24.78
C      12.24       3.70       0.49
C      12.16       3.44       1.86
C      11.31       4.18       2.69
C      10.55       5.22       2.10
C      10.32       6.92       3.75
C      10.67       8.22       3.03
C      11.37       9.22       3.96
C      10.59       5.47       0.71
C      11.36       4.72      25.08
C       9.61       6.43       0.07
C       8.20       5.70      24.92
C       8.20       4.62      24.02
C       7.05       3.86      23.81
C       5.90       4.14      24.54
C       5.96       5.21       0.28
C       7.10       6.02       0.42
C       6.76       8.35       0.56
C       6.73       9.48       1.58
C       6.42      10.83       0.93
C       4.73       5.42       1.15
C       4.56       4.25       2.10
C       3.74       3.17       1.77
C       3.68       2.04       2.60
C       2.82       0.88       2.26
C       4.45       2.00       3.78
C       5.27       3.07       4.13
C       5.31       4.19       3.29
C       5.57       6.22       4.46
C       6.65       7.20       4.89
C       6.09       8.28       5.82
C       6.20       2.97       5.33
C       7.56       2.46       4.88
C       7.66       1.17       4.34
C       8.85       0.70       3.80
C       9.96       1.55       3.75
C       9.90       2.85       4.28
C       8.71       3.28       4.89
C       8.61       4.58       6.90
C       9.92       5.15       7.46
C       9.91       5.24       8.99
C      11.11       3.76       4.14
C       1.32      24.48      21.60
C       0.89      24.18      20.22
C      15.20      24.11      19.90
C      14.77      23.87      18.60
C       0.07      23.71      17.59
C      15.56      24.66      15.42
C      14.41       0.66      15.51
C      14.60       1.86      14.57
C       1.45      23.65      17.91
C       1.84      23.91      19.22
C       2.44      23.14      16.88
C       2.18      21.66      16.61
C       2.18      20.74      17.66
C       1.89      19.39      17.43
C       1.54      18.97      16.15
C       1.51      19.87      15.08
C       1.89      21.20      15.31
C       3.23      21.99      13.54
C       3.79      23.37      13.24
C       5.18      23.26      12.59
C       0.98      19.43      13.72
C      15.27      18.84      13.89
C      15.10      17.46      13.85
C      13.87      16.87      14.19
C      13.71      15.41      14.08
C      12.81      17.68      14.60
C      12.94      19.07      14.65
C      14.17      19.65      14.25
C      14.28      21.69      13.04
C      12.87      21.83      12.48
C      12.87      22.49      11.10
C      11.83      19.92      15.24
C      12.24      20.39      16.62
C      12.55      19.47      17.63
C      13.04      19.91      18.86
C      13.27      21.27      19.08
C      12.97      22.21      18.09
C      12.41      21.76      16.88
C      10.68      23.16      16.16
C      10.42      24.39      15.30
C       9.00      24.92      15.52
C      13.30      23.68      18.30
C       2.53      15.35      12.95
C       3.38      16.20      12.09
C       3.47      15.94      10.71
C       4.31      16.68       9.89
C       5.07      17.72      10.48
C       5.30      19.42       8.83
C       4.95      20.72       9.55
C       4.25      21.72       8.62
C       5.03      17.97      11.87
C       4.16      17.22      12.66
C       6.02      18.93      12.51
C       7.32      18.20      12.82
C       7.32      17.12      13.72
C       8.47      16.36      13.93
C       9.62      16.64      13.20
C       9.66      17.71      12.30
C       8.52      18.52      12.16
C       8.86      20.85      12.02
C       8.89      21.98      11.00
C       9.20      23.33      11.65
C      10.90      17.92      11.43
C      11.06      16.75      10.48
C      11.88      15.67      10.81
C      11.94      14.54       9.98
C      12.80      13.38      10.32
C      11.17      14.50       8.80
C      10.35      15.57       8.45
C      10.31      16.69       9.29
C      10.06      18.72       8.12
C       8.97      19.70       7.69
C       9.54      20.78       6.76
C       9.42      15.47       7.25
C       8.06      14.96       7.70
C       7.96      13.67       8.23
C       6.77      13.20       8.78
C       5.66      14.05       8.83
C       5.72      15.35       8.30
C       6.91      15.78       7.69
C       7.01      17.08       5.68
C       5.71      17.65       5.12
C       5.71      17.74       3.59
C       4.51      16.26       8.44
C      14.20      11.98      16.14
C      14.63      11.68      17.52
C       0.32      11.61      17.84
C       0.75      11.37      19.14
C      15.45      11.21      20.15
C      -0.04      12.16      22.32
C       1.11      13.16      22.23
C       0.92      14.36      23.17
C      14.07      11.15      19.83
C      13.67      11.41      18.52
C      13.07      10.64      20.85
C      13.33       9.16      21.13
C      13.34       8.24      20.08
C      13.63       6.89      20.31
C      13.98       6.47      21.59
C      14.01       7.37      22.66
C      13.63       8.70      22.42
C      12.29       9.49      24.20
C      11.73      10.87      24.50
C      10.34      10.76      25.14
C      14.53       6.93      24.02
C       0.25       6.34      23.85
C       0.42       4.96      23.89
C       1.64       4.37      23.55
C       1.80       2.91      23.66
C       2.71       5.18      23.14
C       2.58       6.57      23.09
C       1.35       7.14      23.49
C       1.24       9.19      24.70
C       2.76       9.33       0.10
C       2.76       9.99       1.48
C       3.69       7.42      22.50
C       3.28       7.89      21.12
C       2.96       6.97      20.11
C       2.48       7.41      18.88
C       2.25       8.77      18.66
C       2.55       9.71      19.65
C       3.10       9.26      20.86
C       4.84      10.66      21.58
C       5.10      11.89      22.44
C       6.51      12.42      22.22
C       2.22      11.18      19.44
O       1.93      23.21      25.04
O       2.37      21.83       1.59
O       5.88      19.03      22.29
O       8.52      17.87      23.89
O       9.41      19.77      21.57
O      12.87       0.07      22.04
O      13.40      24.14      24.01
O       6.91      20.45      19.70
O      15.13       0.26       2.65
O      13.01       0.53       3.26
O       0.24       1.48       8.87
O      13.60       2.90      10.91
O       1.25       3.98      10.84
O       0.82      10.33      11.32
O       3.02      10.11      11.00
O       3.55       2.31       9.24
O      13.59      10.71      12.70
O      13.25       9.33      10.99
O       9.63       6.53      15.45
O       7.00       5.37      13.84
O       6.11       7.27      16.17
O       2.64      12.57      15.70
O       2.12      11.64      13.73
O       8.61       7.95      18.03
O       0.49      12.76       9.93
O       2.61      13.03       9.32
O      15.39      13.98       3.71
O       2.02      15.40       1.67
O      14.37      16.48       1.74
O      14.80      22.83       1.26
O      12.60      22.61       1.58
O      12.08      14.81       3.34
O      13.64       1.79       0.12
O      13.20       3.17      23.57
O       9.69       5.97       2.87
O       7.05       7.13       1.26
O       6.16       5.23       3.59
O       2.70      24.93       3.12
O       2.17       0.86       1.15
O       8.66       4.55       5.46
O       0.44      24.74      22.51
O       2.56      24.47      21.90
O      15.33      23.52      16.29
O       1.97      22.10      14.25
O      14.32      21.02      14.32
O      14.75      14.67      13.84
O      12.55      14.89      14.16
O      12.02      22.69      15.92
O       1.98      14.29      12.46
O       2.32      15.67      14.17
O       5.94      18.47       9.71
O       8.57      19.63      11.32
O       9.46      17.73       8.99
O      12.93      12.43       9.46
O      13.45      13.36      11.43
O       6.96      17.05       7.12
O      15.08      12.24      15.23
O      12.96      11.97      15.84
O       0.18      11.02      21.45
O      13.55       9.60      23.49
O       1.20       8.52      23.42
O       0.77       2.17      23.90
O       2.97       2.39      23.58
O       3.49      10.19      21.82
