13

H       5.80       3.63       9.51
C       5.52       3.22      12.31
C       8.01       3.44       9.53
H       8.27       3.59       8.48
C       8.98       3.20      10.49
C       6.71       3.23      11.44
C      10.43       3.17      10.25
O      11.24       2.89      11.20
O       4.42       3.55      11.74
O       5.68       2.91      13.53
C       6.72       3.46      10.07
S       8.30       2.97      12.06
O      10.77       3.44       9.04
