13

C       5.42      15.14       3.74
O       7.05      13.45       4.20
O       5.42      13.86       5.70
O       2.31      18.31       3.74
O       2.82      18.52       1.54
H       6.64      15.10       1.93
H       5.07      17.04       0.99
C       5.79      15.54       2.46
C       4.96      16.55       1.95
C       3.97      16.92       2.85
C       5.99      14.09       4.60
C       2.96      17.99       2.70
S       4.05      16.02       4.32
