13

S       9.40      -0.31       6.74
C      11.15       0.18       8.60
C      10.31      -0.84       9.11
C       9.32      -1.21       8.21
C      11.34       1.62       6.46
C       8.32      -2.28       8.35
O      12.41       2.26       6.86
O      10.77       1.85       5.36
C      10.77       0.58       7.32
O       8.18      -2.81       9.52
O       7.66      -2.60       7.31
H      11.99       0.61       9.13
H      10.42      -1.33      10.07
