13

S       2.41      11.98      10.06
C       3.99      11.49      12.05
C       2.70      11.51      12.59
C       5.19      11.73       9.81
O      -0.52      12.06      10.92
C       1.73      11.75      11.63
O       6.29      11.39      10.38
C       4.00      11.72      10.68
C       0.28      11.78      11.88
O       5.03      12.03       8.59
O      -0.06      11.51      13.08
H       4.91      11.32      12.61
H       2.45      11.36      13.64
