13

S      10.12       7.76       7.78
C       8.41       8.35       5.93
C       8.89       8.80       7.15
C       9.03       7.16       5.51
O      10.63       4.75       5.31
C       8.46      10.01       7.87
O       8.83      10.10       9.11
C      10.87       5.55       6.25
C       9.99       6.72       6.41
O       7.78      10.87       7.25
O      11.85       5.46       7.10
H       7.65       8.90       5.38
H       8.81       6.61       4.60
