158

Zn       0.50       7.52      13.50
Zn       5.22       0.43      24.93
Zn       4.32       1.07      12.12
Zn      -0.40       8.16       0.69
Zn       2.41       4.30      12.81
Zn      -2.40       3.65      25.62
H      -0.98       1.78      12.90
H       1.94      -0.59      15.01
H       2.56       8.52      15.53
H      -2.86       8.66      17.25
H      -2.59       7.05      19.10
H       3.51       4.93      17.75
H       3.28       6.50      15.88
H      -3.50       6.52      21.09
H       6.21       5.04      23.06
H       4.75       1.75      20.73
H       4.63       3.23      18.73
H       3.84       6.18      25.53
H      -2.81       8.52      23.44
H       7.33      -0.56      22.89
H       1.91      -0.72      21.18
H       2.19       0.89      19.34
H      -1.30       3.03      20.68
H       8.06       1.46      22.55
H       1.27       1.42      17.34
H       1.41       2.90      15.37
H      -0.03       6.20      17.70
H      -0.17       4.72      19.70
H       5.80       6.81      12.72
H       2.89       9.18      10.62
H       2.26       0.07      10.10
H       7.68      -0.07       8.37
H       7.42       1.54       6.52
H       1.31       3.66       7.87
H       1.54       2.09       9.74
H       8.33       2.07       4.53
H      -1.38       3.55       2.56
H       0.07       6.84       4.89
H       0.20       5.36       6.90
H       0.98       2.41       0.09
H       7.64       0.07       2.18
H      -2.50       9.15       2.73
H       2.91       9.31       4.44
H       2.64       7.70       6.29
H       6.12       5.56       4.94
H      -3.24       7.14       3.07
H       3.55       7.17       8.28
H       3.42       5.69      10.25
H       4.85       2.39       7.92
H       5.00       3.87       5.92
C      -0.75       0.98      13.59
C       0.58       0.69      13.92
C       0.89      -0.35      14.81
C       4.71       8.77      15.43
C       3.38       9.07      15.07
C       7.83       0.19      14.14
C       4.97       7.73      16.44
C      -3.56       7.84      17.35
C      -3.42       6.94      18.41
C       5.27       5.88      18.59
C       4.23       5.73      17.64
C       4.09       6.64      16.59
C       5.37       4.98      19.75
C       5.83       5.47      20.99
C       5.89       4.64      22.10
C       5.51       3.30      22.02
C       5.05       2.80      20.79
C       4.98       3.63      19.68
C       1.68       1.51      13.33
C       6.41       0.35      13.70
C       5.53       2.44      23.22
C       4.08       6.98      24.84
C       5.42       7.26      24.52
C      -3.86       8.30      23.63
C      -0.13      -0.82      23.01
C       8.14      -1.11      23.36
C       3.07       7.77      24.28
C       0.14       0.22      21.99
C       1.21       0.10      21.08
C       1.36       1.00      20.03
C       0.45       2.07      19.85
C      -0.58       2.22      20.79
C      -0.73       1.32      21.84
C       0.56       2.97      18.68
C       1.02       2.47      17.44
C       1.09       3.30      16.33
C       0.72       4.65      16.42
C       0.26       5.15      17.65
C       0.18       4.32      18.76
C      -3.10       6.44      25.12
C       1.65       7.60      24.72
C       0.76       5.52      15.22
C       5.57       7.61      12.03
C       4.24       7.90      11.70
C       3.93       8.95      10.81
C       0.11      -0.18      10.20
C       1.44      -0.48      10.55
C      -3.00       8.40      11.48
C      -0.14       0.86       9.18
C       8.39       0.75       8.27
C       8.25       1.65       7.22
C      -0.44       2.71       7.04
C       0.59       2.86       7.98
C       0.73       1.95       9.03
C      -0.54       3.61       5.87
C      -1.01       3.12       4.63
C      -1.07       3.95       3.52
C      -0.68       5.29       3.60
C      -0.23       5.79       4.83
C      -0.15       4.96       5.95
C       3.15       7.08      12.29
C      -1.59       8.24      11.92
C      -0.70       6.15       2.40
C       0.74       1.61       0.79
C      -0.59       1.33       1.10
C       8.69       0.29       2.00
C       4.95       9.41       2.62
C      -3.32       9.70       2.27
C       1.76       0.82       1.34
C       4.68       8.37       3.63
C       3.61       8.49       4.54
C       3.47       7.59       5.59
C       4.37       6.52       5.78
C       5.40       6.37       4.83
C       5.55       7.27       3.78
C       4.26       5.62       6.94
C       3.81       6.12       8.18
C       3.73       5.29       9.29
C       4.10       3.94       9.21
C       4.56       3.44       7.98
C       4.65       4.27       6.87
C       7.92       2.15       0.50
C       3.17       0.99       0.90
C       4.06       3.07      10.40
O       5.53      -0.47      14.14
O       5.23       1.20      23.09
O       2.87       1.08      13.48
O       6.14       1.28      12.87
O       1.35       2.61      12.75
O       5.79       2.93      24.38
O       0.76       8.40      24.29
O       0.50       6.76      15.35
O      -1.90       6.87      25.01
O       1.40       6.67      25.56
O       6.17       6.62       0.06
O       1.01       5.02      14.06
O      -0.71       9.06      11.48
O      -0.41       7.39       2.53
O       1.95       7.51      12.15
O      -1.31       7.31      12.75
O       3.48       5.98      12.87
O      -0.96       5.67       1.25
O       4.07       0.19       1.33
O       4.32       1.83      10.27
O       6.73       1.73       0.61
O       3.43       1.92       0.06
O      -1.35       1.97      25.57
O       3.81       3.57      11.56
