34

O       4.57       0.61       8.58
O       4.76       5.04       8.96
C       3.13      -0.15      10.33
C       2.45      -1.00       9.45
C       1.19      -1.93      11.15
C       1.81      -1.12      12.10
C       2.78      -0.21      11.70
C       4.17       0.73       9.76
C       3.36       6.31      10.40
C       2.55       6.33      11.54
C       1.45       8.27      10.84
C       2.23       8.32       9.68
C       3.18       7.34       9.44
C       4.38       5.27      10.14
C       5.81       2.51      10.14
C       6.04       3.70      11.07
H       2.70      -0.96       8.39
H       0.43      -2.66      11.44
H       1.54      -1.20      13.15
H       3.28       0.39      12.46
H       2.61       5.56      12.31
H       0.69       9.00      11.06
H       2.09       9.14       8.98
H       3.81       7.37       8.55
H       4.38       1.77      11.54
H       4.66       4.86      12.16
H       6.73       1.90      10.10
H       5.60       2.87       9.13
H       6.90       4.27      10.69
H       6.28       3.36      12.09
N       1.49      -1.87       9.82
N       1.61       7.27      11.78
N       4.70       1.69      10.57
N       4.89       4.58      11.21
