34

O       4.51       9.44       2.15
O       4.75      13.92       1.75
C       3.08       8.69       0.38
C       2.40       7.83       1.25
C       1.15       6.90      -0.46
C       1.76       7.72      -1.40
C       2.73       8.64      -0.99
C       4.12       9.56       0.96
C       3.34      15.17       0.31
C       2.54      15.18      -0.84
C       1.42      17.11      -0.14
C       2.19      17.16       1.02
C       3.15      16.19       1.27
C       4.36      14.13       0.58
C       5.76      11.35       0.61
C       6.00      12.53      -0.32
H       2.64       7.86       2.31
H       0.40       6.16      -0.75
H       1.50       7.64      -2.45
H       3.22       9.25      -1.75
H       2.61      14.41      -1.61
H       0.65      17.84      -0.35
H       2.04      17.98       1.72
H       3.77      16.22       2.16
H       4.36      10.59      -0.81
H       4.62      13.67      -1.44
H       6.68      10.74       0.67
H       5.53      11.70       1.62
H       6.85      13.10       0.08
H       6.26      12.19      -1.33
N       1.45       6.95       0.88
N       1.59      16.12      -1.08
N       4.66      10.52       0.15
N       4.85      13.41      -0.48
