34

O       4.48       9.46      12.88
O       4.29      13.88      12.50
C       5.90       8.69      11.11
C       6.57       7.83      11.98
C       7.82       6.90      10.28
C       7.21       7.72       9.34
C       6.24       8.64       9.74
C       4.85       9.57      11.68
C       5.67      15.17      11.05
C       6.47      15.18       9.90
C       7.56      17.12      10.60
C       6.79      17.17      11.76
C       5.84      16.19      12.01
C       4.66      14.11      11.32
C       3.22      11.35      11.32
C       2.99      12.55      10.40
H       6.32       7.87      13.04
H       8.57       6.16       9.99
H       7.48       7.63       8.29
H       5.76       9.25       8.98
H       6.41      14.41       9.14
H       8.33      17.86      10.38
H       6.94      17.99      12.46
H       5.22      16.22      12.90
H       4.60      10.57       9.90
H       4.36      13.71       9.30
H       2.29      10.76      11.37
H       3.44      11.70      12.33
H       2.14      13.12      10.80
H       2.73      12.22       9.38
N       7.52       6.95      11.62
N       7.40      16.13       9.66
N       4.32      10.52      10.87
N       4.14      13.43      10.26
