32

C       6.87       0.36       9.80
C       6.18      -0.36      10.77
C       5.47       0.33      11.76
C       5.48       1.73      11.71
C       6.20       2.37      10.71
C       4.76      -0.39      12.84
C       4.81      -1.89      12.85
C       0.82      -0.32      18.65
C       1.52       0.40      17.69
C       2.22      -0.29      16.69
C       2.21      -1.69      16.74
C       1.49      -2.33      17.74
C       2.93       0.43      15.62
C       2.88       1.93      15.61
H       7.44      -0.14       9.01
H       6.18      -1.45      10.70
H       4.94       2.30      12.46
H       6.24       3.46      10.64
H       4.21      -2.29      13.67
H       5.85      -2.22      12.95
H       4.45      -2.29      11.89
H       0.26       0.18      19.44
H       1.51       1.48      17.75
H       2.75      -2.26      15.99
H       1.45      -3.42      17.81
H       3.48       2.33      14.78
H       1.84       2.26      15.50
H       3.24       2.33      16.56
N       6.90       1.70       9.78
N       4.16       0.36      13.72
N       0.79      -1.66      18.68
N       3.53      -0.32      14.73
