15

C       0.42      10.45       5.28
C      -0.14      11.80       5.74
C       0.83      12.95       5.46
C       0.41      14.29       6.04
O       0.64      15.32       5.32
O       1.87      10.50       7.17
H       0.57      10.42       4.20
H      -0.30       9.66       5.55
H      -0.35      11.76       6.82
H      -1.10      11.97       5.23
H       1.02      13.07       4.39
H       1.80      12.71       5.94
O      -0.10      14.30       7.21
O       2.64       9.55       5.25
C       1.74      10.13       5.95
