14

C      16.52       6.12      28.64
O      12.18       7.19      27.49
O      13.37       7.88      25.67
Cu      15.03       7.26      26.52
Cu      13.75       6.54      28.48
C      14.01       4.63      26.42
C      14.75       9.16      28.63
C      12.28       7.66      26.30
O      13.56       4.79      27.61
O      14.70       5.48      25.75
O      14.02       8.32      29.28
O      15.44       5.96      29.30
O      15.24       8.99      27.46
O      16.63       6.58      27.45
