873

H      11.62      10.63      37.26
H      12.84      11.52      39.15
H      13.73      12.82       1.13
H      14.14      14.33       2.98
H      10.42      16.21       2.27
H       8.40      13.22      38.13
H      10.97      15.80      38.12
H       7.74      18.39      37.26
H       6.52      17.50      39.15
H       8.95      12.81       2.27
H       5.63      16.20       1.13
H       5.23      14.69       2.98
H      11.58      16.79       4.24
H      12.69      15.59       4.86
H       9.89      11.72      35.44
H       8.31      12.03      36.11
H       9.48      17.30      35.43
H      11.05      16.99      36.11
H       6.68      13.43       4.86
H       7.79      12.24       4.24
H      20.81      14.77      10.50
H      20.96      13.27      12.39
H      21.65      11.85      14.50
H      22.76      10.74      16.35
H      -4.66      13.03      15.64
H      -6.25      16.27      11.37
H      -5.30      12.75      11.37
H      -1.44      14.25      10.50
H      -1.60      15.75      12.40
H      -6.87      16.00      15.64
H      -2.29      17.17      14.51
H      -3.39      18.28      16.35
H      -4.74      11.73      17.62
H      -6.33      11.36      18.23
H      -8.29      15.73       8.68
H      -7.23      16.94       9.35
H      -3.25      13.29       8.68
H      -4.31      12.08       9.35
H      -5.20      17.66      18.23
H      -6.79      17.29      17.62
H      19.80       4.75      23.88
H      18.43       5.36      25.78
H      16.85       5.48      27.88
H      15.33       5.08      29.73
H      15.57       0.91      29.02
H      19.17       0.66      24.75
H      15.65       1.60      24.75
H      -0.43      24.27      23.88
H       0.94      23.66      25.77
H      19.25       1.34      29.02
H       2.52      23.54      27.88
H       4.03      23.95      29.73
H      14.49       1.63      31.00
H      14.97       3.19      31.61
H      19.73       2.70      22.06
H      20.25       1.18      22.73
H      -0.36      26.32      22.06
H      14.57       1.08      22.73
H       4.40      25.83      31.61
H      20.33       0.63      30.99
H      12.32       5.52      29.78
H      12.64       3.15      33.24
H      10.23       9.47      31.34
H      11.29       7.80      29.99
H       9.32      10.18      33.56
H       9.98       7.71      36.90
H       8.51       9.64      37.06
H      12.70       3.05      29.67
H      16.03      16.73       3.03
H      13.82      17.63       6.49
H      20.50      16.56       4.59
H      18.52      16.47       3.23
H      -9.34      16.99       6.81
H      19.10      17.65      10.15
H      -9.40      17.96      10.30
H      13.70      17.63       2.92
H      23.89       7.90      16.40
H      -5.14       9.37      19.86
H      21.50       4.11      17.97
H      22.41       5.87      16.61
H      21.35       2.97      20.19
H      23.15       4.79      23.53
H      22.22       2.55      23.69
H      -5.08       9.47      16.29
H       7.05      23.51      29.78
H       6.73      25.87      33.24
H       9.14      19.55      31.34
H       8.07      21.22      29.99
H      10.05      18.84      33.56
H       9.38      21.31      36.90
H      10.85      19.38      37.06
H       6.66      25.97      29.67
H       3.34      12.29       3.03
H       5.55      11.39       6.49
H      -1.13      12.46       4.59
H       0.84      12.55       3.23
H      -2.20      12.03       6.81
H       0.27      11.37      10.15
H      -2.14      11.06      10.31
H       5.67      11.40       2.92
H      -4.52      21.12      16.40
H      -6.40      19.65      19.87
H      -2.14      24.91      17.97
H      -3.05      23.15      16.61
H      -1.98      26.05      20.19
H      -3.79      24.23      23.53
H      -2.85      26.47      23.69
H      -6.46      19.55      16.29
H      11.62      10.63      24.26
H      12.84      11.52      26.15
H      13.73      12.82      28.26
H      14.14      14.33      30.11
H      10.42      16.21      29.40
H       8.40      13.22      25.13
H      10.97      15.80      25.12
H       7.74      18.39      24.26
H       6.52      17.50      26.15
H       8.95      12.81      29.40
H       5.63      16.20      28.26
H       5.23      14.69      30.11
H      11.58      16.79      31.37
H      12.69      15.59      31.99
H       9.89      11.72      22.44
H       8.31      12.03      23.11
H       9.48      17.30      22.43
H      11.05      16.99      23.11
H       6.68      13.43      31.99
H       7.79      12.24      31.38
H      20.81      14.77      37.63
H      20.96      13.27      39.53
H      21.65      11.85       1.50
H      22.76      10.74       3.35
H      -4.66      13.03       2.64
H      -6.25      16.27      38.50
H      -5.30      12.75      38.50
H      -1.44      14.25      37.64
H      -1.60      15.75      39.53
H      -6.87      16.00       2.64
H      -2.29      17.17       1.51
H      -3.39      18.28       3.35
H      -4.74      11.73       4.62
H      -6.33      11.36       5.23
H      -8.29      15.73      35.81
H      -7.23      16.94      36.48
H      -3.25      13.29      35.81
H      -4.31      12.08      36.49
H      -5.20      17.66       5.23
H      -6.79      17.29       4.62
H      19.80       4.75      10.88
H      18.43       5.36      12.78
H      16.85       5.48      14.88
H      15.33       5.08      16.73
H      15.57       0.91      16.02
H      19.17       0.66      11.75
H      15.65       1.60      11.75
H      -0.43      24.27      10.88
H       0.94      23.66      12.77
H      19.25       1.34      16.02
H       2.52      23.54      14.88
H       4.03      23.95      16.73
H      14.49       1.63      18.00
H      14.97       3.19      18.61
H      19.73       2.70       9.06
H      20.25       1.18       9.73
H      -0.36      26.32       9.06
H      14.57       1.08       9.73
H       4.40      25.83      18.61
H      20.33       0.63      17.99
H      12.32       5.52      16.78
H      12.64       3.15      20.24
H      10.23       9.47      18.34
H      11.29       7.80      16.99
H       9.32      10.18      20.56
H       9.98       7.71      23.90
H       8.51       9.64      24.06
H      12.70       3.05      16.67
H      16.03      16.73      30.16
H      13.82      17.63      33.62
H      20.50      16.56      31.72
H      18.52      16.47      30.36
H      -9.34      16.99      33.94
H      19.10      17.65      37.28
H      -9.40      17.96      37.44
H      13.70      17.63      30.05
H      23.89       7.90       3.40
H      -5.14       9.37       6.86
H      21.50       4.11       4.97
H      22.41       5.87       3.61
H      21.35       2.97       7.19
H      23.15       4.79      10.53
H      22.22       2.55      10.69
H      -5.08       9.47       3.29
H       7.05      23.51      16.78
H       6.73      25.87      20.24
H       9.14      19.55      18.34
H       8.07      21.22      16.99
H      10.05      18.84      20.56
H       9.38      21.31      23.90
H      10.85      19.38      24.06
H       6.66      25.97      16.67
H       3.34      12.29      30.16
H       5.55      11.39      33.62
H      -1.13      12.46      31.72
H       0.84      12.55      30.37
H      -2.20      12.03      33.94
H       0.27      11.37      37.28
H      -2.14      11.06      37.44
H       5.67      11.40      30.05
H      -4.52      21.12       3.40
H      -6.40      19.65       6.87
H      -2.14      24.91       4.97
H      -3.05      23.15       3.61
H      -1.98      26.05       7.19
H      -3.79      24.23      10.53
H      -2.85      26.47      10.69
H      -6.46      19.55       3.29
H      11.62      10.63      11.26
H      12.84      11.52      13.15
H      13.73      12.82      15.26
H      14.14      14.33      17.11
H      10.42      16.21      16.40
H       8.40      13.22      12.13
H      10.97      15.80      12.12
H       7.74      18.39      11.26
H       6.52      17.50      13.15
H       8.95      12.81      16.40
H       5.63      16.20      15.26
H       5.23      14.69      17.11
H      11.58      16.79      18.37
H      12.69      15.59      18.99
H       9.89      11.72       9.44
H       8.31      12.03      10.11
H       9.48      17.30       9.43
H      11.05      16.99      10.11
H       6.68      13.43      18.99
H       7.79      12.24      18.38
H      20.81      14.77      24.63
H      20.96      13.27      26.53
H      21.65      11.85      28.64
H      22.76      10.74      30.48
H      -4.66      13.03      29.77
H      -6.25      16.27      25.50
H      -5.30      12.75      25.50
H      -1.44      14.25      24.64
H      -1.60      15.75      26.53
H      -6.87      16.00      29.78
H      -2.29      17.17      28.64
H      -3.39      18.28      30.49
H      -4.74      11.73      31.75
H      -6.33      11.36      32.36
H      -8.29      15.73      22.81
H      -7.23      16.94      23.48
H      -3.25      13.29      22.81
H      -4.31      12.08      23.49
H      -5.20      17.66      32.37
H      -6.79      17.29      31.75
H      19.80       4.75      38.02
H      18.43       5.36      39.91
H      16.85       5.48       1.88
H      15.33       5.08       3.73
H      15.57       0.91       3.02
H      19.17       0.66      38.88
H      15.65       1.60      38.88
H      -0.43      24.27      38.01
H       0.94      23.66      39.91
H      19.25       1.34       3.02
H       2.52      23.54       1.88
H       4.03      23.95       3.73
H      14.49       1.63       5.00
H      14.97       3.19       5.61
H      19.73       2.70      36.19
H      20.25       1.18      36.87
H      -0.36      26.32      36.19
H      14.57       1.08      36.87
H       4.40      25.83       5.61
H      20.33       0.63       4.99
H      12.32       5.52       3.78
H      12.64       3.15       7.24
H      10.23       9.47       5.34
H      11.29       7.80       3.99
H       9.32      10.18       7.56
H       9.98       7.71      10.90
H       8.51       9.64      11.06
H      12.70       3.05       3.67
H      16.03      16.73      17.16
H      13.82      17.63      20.62
H      20.50      16.56      18.72
H      18.52      16.47      17.36
H      -9.34      16.99      20.94
H      19.10      17.65      24.28
H      -9.40      17.96      24.44
H      13.70      17.63      17.05
H      23.89       7.90      30.53
H      -5.14       9.37      34.00
H      21.50       4.11      32.10
H      22.41       5.87      30.74
H      21.35       2.97      34.32
H      23.15       4.79      37.66
H      22.22       2.55      37.82
H      -5.08       9.47      30.42
H       7.05      23.51       3.78
H       6.73      25.87       7.24
H       9.14      19.55       5.34
H       8.07      21.22       3.99
H      10.05      18.84       7.56
H       9.38      21.31      10.90
H      10.85      19.38      11.06
H       6.66      25.97       3.67
H       3.34      12.29      17.16
H       5.55      11.39      20.62
H      -1.13      12.46      18.72
H       0.84      12.55      17.37
H      -2.20      12.03      20.94
H       0.27      11.37      24.28
H      -2.14      11.06      24.44
H       5.67      11.40      17.05
H      -4.52      21.12      30.53
H      -6.40      19.65      34.00
H      -2.14      24.91      32.10
H      -3.05      23.15      30.74
H      -1.98      26.05      34.32
H      -3.79      24.23      37.66
H      -2.85      26.47      37.82
H      -6.46      19.55      30.43
C       8.46      14.38       0.95
C       7.52      15.37       0.64
C       8.05      16.16      39.74
C       9.34      15.69      39.45
C      10.06      16.21      38.36
C       9.48      17.20      37.53
C       8.19      17.70      37.86
C       7.48      17.19      38.97
C       6.31      15.47       1.35
C       6.08      14.58       2.43
C       7.04      13.61       2.79
C       8.23      13.49       2.02
C      10.02      13.33      39.45
C      11.32      12.86      39.74
C      11.84      13.65       0.63
C      10.91      14.64       0.95
C      13.05      13.56       1.35
C      13.28      14.44       2.43
C      12.32      15.42       2.79
C      11.14      15.53       2.02
C       9.30      12.80      38.37
C       9.88      11.82      37.53
C      11.17      11.32      37.86
C      11.89      11.83      38.97
C       9.68      14.51       0.14
C      12.50      16.25       4.01
C       9.22      11.44      36.25
C      10.14      17.58      36.25
C       6.86      12.77       4.01
C      -5.27      15.64      14.33
C      -3.94      15.95      14.01
C      -3.53      15.10      12.98
C      -4.58      14.22      12.69
C      -4.48      13.32      11.61
C      -3.34      13.34      10.78
C      -2.26      14.20      11.11
C      -2.35      15.08      12.21
C      -3.26      16.95      14.73
C      -3.91      17.59      15.80
C      -5.24      17.25      16.17
C      -5.92      16.28      15.40
C      -6.97      14.81      12.70
C      -8.01      13.92      12.98
C      23.31      13.07      14.01
C      -6.27      13.38      14.33
C      22.63      12.07      14.72
C      23.28      11.43      15.80
C      -6.30      11.77      16.16
C      -5.62      12.74      15.39
C      -7.06      15.70      11.61
C      -8.20      15.68      10.78
C      21.63      14.82      11.11
C      21.72      13.94      12.21
C      -5.77      14.51      13.52
C      -5.67      11.19      17.38
C      -8.20      16.45       9.50
C      -3.34      12.57       9.50
C      -5.87      17.83      17.38
C      18.14       0.13      27.71
C       2.29      25.59      27.39
C       1.35      25.66      26.36
C      16.56       0.24      26.07
C      15.74       0.61      24.99
C      -0.28      26.37      24.16
C      -0.06      25.01      24.49
C       0.74      24.65      25.59
C       2.81      24.50      28.10
C       3.70      24.74      29.18
C       4.06      26.06      29.54
C      19.02       0.38      28.77
C      18.26       2.02      26.07
C      18.02       3.37      26.36
C      17.08       3.43      27.39
C      16.68       2.12      27.71
C      16.55       4.52      28.10
C      15.67       4.28      29.18
C      15.31       2.96      29.54
C      15.80       1.88      28.77
C      19.08       1.65      24.99
C      19.64       2.65      24.16
C      19.43       4.01      24.49
C      18.63       4.38      25.59
C      17.41       1.13      26.89
C      14.49       2.70      30.76
C      20.31       2.26      22.88
C      -0.94      26.76      22.88
C       4.88      26.32      30.76
C      12.59       4.18      31.39
C      12.40       4.03      32.78
C      11.48       6.22      32.97
C      11.64       6.43      31.57
C      12.21       5.40      30.79
C      10.88       7.21      33.77
C      10.10       7.93      35.91
C       9.57       9.12      35.37
C       9.72       9.34      33.99
C      10.40       8.41      33.17
C      10.57       8.62      31.78
C      11.20       7.64      30.99
C      14.73      17.16       4.64
C      14.70      17.40       6.02
C      17.06      17.10       6.21
C      17.16      16.86       4.81
C      15.98      16.88       4.04
C      18.22      17.12       7.01
C      19.23      17.45       9.16
C      20.53      17.30       8.62
C      20.64      17.06       7.23
C      19.49      16.94       6.42
C      19.59      16.69       5.03
C      18.43      16.64       4.24
C      24.91       8.81      18.01
C      25.13       8.72      19.40
C      23.69       6.83      19.59
C      23.43       6.86      18.19
C      24.04       7.87      17.41
C      23.13       5.81      20.39
C      22.91       4.78      22.54
C      22.13       3.73      22.00
C      21.87       3.75      20.61
C      22.34       4.80      19.80
C      22.08       4.84      18.41
C      22.61       5.87      17.62
C       6.78      24.84      31.39
C       6.97      25.00      32.78
C       7.89      22.80      32.97
C       7.73      22.59      31.57
C       7.16      23.62      30.79
C       8.49      21.81      33.77
C       9.27      21.09      35.91
C       9.79      19.90      35.37
C       9.64      19.68      33.99
C       8.97      20.61      33.17
C       8.80      20.41      31.78
C       8.17      21.38      30.99
C       4.63      11.86       4.64
C       4.67      11.62       6.02
C       2.31      11.92       6.21
C       2.21      12.17       4.82
C       3.39      12.14       4.04
C       1.15      11.90       7.02
C       0.14      11.58       9.16
C      -1.16      11.72       8.62
C      -1.27      11.96       7.23
C      -0.13      12.08       6.42
C      -0.22      12.33       5.03
C       0.94      12.39       4.24
C      -5.54      20.21      18.01
C      -5.77      20.30      19.40
C      -4.33      22.19      19.59
C      -4.06      22.16      18.19
C      -4.67      21.15      17.41
C      -3.77      23.21      20.39
C      -3.54      24.24      22.54
C      -2.77      25.30      22.00
C      -2.50      25.28      20.61
C      -2.97      24.23      19.80
C      -2.71      24.18      18.41
C      -3.24      23.15      17.62
C       8.46      14.38      28.08
C       7.52      15.37      27.77
C       8.05      16.16      26.74
C       9.34      15.69      26.45
C      10.06      16.21      25.36
C       9.48      17.20      24.53
C       8.19      17.70      24.86
C       7.48      17.19      25.97
C       6.31      15.47      28.48
C       6.08      14.58      29.56
C       7.04      13.61      29.92
C       8.23      13.49      29.15
C      10.02      13.33      26.45
C      11.32      12.86      26.74
C      11.84      13.65      27.77
C      10.91      14.64      28.08
C      13.05      13.56      28.48
C      13.28      14.44      29.56
C      12.32      15.42      29.92
C      11.14      15.53      29.15
C       9.30      12.80      25.37
C       9.88      11.82      24.53
C      11.17      11.32      24.86
C      11.89      11.83      25.97
C       9.68      14.51      27.27
C      12.50      16.25      31.14
C       9.22      11.44      23.25
C      10.14      17.58      23.25
C       6.86      12.77      31.14
C      -5.27      15.64       1.33
C      -3.94      15.95       1.01
C      -3.53      15.10      40.11
C      -4.58      14.22      39.83
C      -4.48      13.32      38.74
C      -3.34      13.34      37.91
C      -2.26      14.20      38.24
C      -2.35      15.08      39.34
C      -3.26      16.95       1.73
C      -3.91      17.59       2.80
C      -5.24      17.25       3.17
C      -5.92      16.28       2.40
C      -6.97      14.81      39.83
C      -8.01      13.92      40.11
C      23.31      13.07       1.01
C      -6.27      13.38       1.33
C      22.63      12.07       1.72
C      23.28      11.43       2.80
C      -6.30      11.77       3.16
C      -5.62      12.74       2.39
C      -7.06      15.70      38.74
C      -8.20      15.68      37.91
C      21.63      14.82      38.24
C      21.72      13.94      39.34
C      -5.77      14.51       0.52
C      -5.67      11.19       4.38
C      -8.20      16.45      36.63
C      -3.34      12.57      36.63
C      -5.87      17.83       4.38
C      18.14       0.13      14.71
C       2.29      25.59      14.39
C       1.35      25.66      13.36
C      16.56       0.24      13.07
C      15.74       0.61      11.99
C      -0.28      26.37      11.16
C      -0.06      25.01      11.49
C       0.74      24.65      12.59
C       2.81      24.50      15.10
C       3.70      24.74      16.18
C       4.06      26.06      16.54
C      19.02       0.38      15.77
C      18.26       2.02      13.07
C      18.02       3.37      13.36
C      17.08       3.43      14.39
C      16.68       2.12      14.71
C      16.55       4.52      15.10
C      15.67       4.28      16.18
C      15.31       2.96      16.54
C      15.80       1.88      15.77
C      19.08       1.65      11.99
C      19.64       2.65      11.16
C      19.43       4.01      11.49
C      18.63       4.38      12.59
C      17.41       1.13      13.89
C      14.49       2.70      17.76
C      20.31       2.26       9.88
C      -0.94      26.76       9.88
C       4.88      26.32      17.76
C      12.59       4.18      18.39
C      12.40       4.03      19.78
C      11.48       6.22      19.97
C      11.64       6.43      18.57
C      12.21       5.40      17.79
C      10.88       7.21      20.77
C      10.10       7.93      22.91
C       9.57       9.12      22.37
C       9.72       9.34      20.99
C      10.40       8.41      20.17
C      10.57       8.62      18.78
C      11.20       7.64      17.99
C      14.73      17.16      31.77
C      14.70      17.40      33.16
C      17.06      17.10      33.34
C      17.16      16.86      31.95
C      15.98      16.88      31.17
C      18.22      17.12      34.15
C      19.23      17.45      36.29
C      20.53      17.30      35.75
C      20.64      17.06      34.36
C      19.49      16.94      33.55
C      19.59      16.69      32.16
C      18.43      16.64      31.37
C      24.91       8.81       5.01
C      25.13       8.72       6.40
C      23.69       6.83       6.59
C      23.43       6.86       5.19
C      24.04       7.87       4.41
C      23.13       5.81       7.39
C      22.91       4.78       9.54
C      22.13       3.73       9.00
C      21.87       3.75       7.61
C      22.34       4.80       6.80
C      22.08       4.84       5.41
C      22.61       5.87       4.62
C       6.78      24.84      18.39
C       6.97      25.00      19.78
C       7.89      22.80      19.97
C       7.73      22.59      18.57
C       7.16      23.62      17.79
C       8.49      21.81      20.77
C       9.27      21.09      22.91
C       9.79      19.90      22.37
C       9.64      19.68      20.99
C       8.97      20.61      20.17
C       8.80      20.41      18.78
C       8.17      21.38      17.99
C       4.63      11.86      31.77
C       4.67      11.62      33.16
C       2.31      11.92      33.35
C       2.21      12.17      31.95
C       3.39      12.14      31.17
C       1.15      11.90      34.15
C       0.14      11.58      36.29
C      -1.16      11.72      35.75
C      -1.27      11.96      34.37
C      -0.13      12.08      33.55
C      -0.22      12.33      32.16
C       0.94      12.39      31.37
C      -5.54      20.21       5.01
C      -5.77      20.30       6.40
C      -4.33      22.19       6.59
C      -4.06      22.16       5.19
C      -4.67      21.15       4.41
C      -3.77      23.21       7.39
C      -3.54      24.24       9.54
C      -2.77      25.30       9.00
C      -2.50      25.28       7.61
C      -2.97      24.23       6.80
C      -2.71      24.18       5.41
C      -3.24      23.15       4.62
C       8.46      14.38      15.08
C       7.52      15.37      14.77
C       8.05      16.16      13.74
C       9.34      15.69      13.45
C      10.06      16.21      12.36
C       9.48      17.20      11.53
C       8.19      17.70      11.86
C       7.48      17.19      12.97
C       6.31      15.47      15.48
C       6.08      14.58      16.56
C       7.04      13.61      16.92
C       8.23      13.49      16.15
C      10.02      13.33      13.45
C      11.32      12.86      13.74
C      11.84      13.65      14.77
C      10.91      14.64      15.08
C      13.05      13.56      15.48
C      13.28      14.44      16.56
C      12.32      15.42      16.92
C      11.14      15.53      16.15
C       9.30      12.80      12.37
C       9.88      11.82      11.53
C      11.17      11.32      11.86
C      11.89      11.83      12.97
C       9.68      14.51      14.27
C      12.50      16.25      18.14
C       9.22      11.44      10.25
C      10.14      17.58      10.25
C       6.86      12.77      18.14
C      -5.27      15.64      28.46
C      -3.94      15.95      28.14
C      -3.53      15.10      27.11
C      -4.58      14.22      26.83
C      -4.48      13.32      25.74
C      -3.34      13.34      24.91
C      -2.26      14.20      25.24
C      -2.35      15.08      26.34
C      -3.26      16.95      28.86
C      -3.91      17.59      29.93
C      -5.24      17.25      30.30
C      -5.92      16.28      29.53
C      -6.97      14.81      26.83
C      -8.01      13.92      27.11
C      23.31      13.07      28.14
C      -6.27      13.38      28.46
C      22.63      12.07      28.86
C      23.28      11.43      29.93
C      -6.30      11.77      30.30
C      -5.62      12.74      29.53
C      -7.06      15.70      25.74
C      -8.20      15.68      24.91
C      21.63      14.82      25.24
C      21.72      13.94      26.34
C      -5.77      14.51      27.65
C      -5.67      11.19      31.51
C      -8.20      16.45      23.63
C      -3.34      12.57      23.63
C      -5.87      17.83      31.51
C      18.14       0.13       1.71
C       2.29      25.59       1.39
C       1.35      25.66       0.36
C      16.56       0.24       0.07
C      15.74       0.61      39.12
C      -0.28      26.37      38.29
C      -0.06      25.01      38.62
C       0.74      24.65      39.72
C       2.81      24.50       2.10
C       3.70      24.74       3.18
C       4.06      26.06       3.54
C      19.02       0.38       2.77
C      18.26       2.02       0.07
C      18.02       3.37       0.36
C      17.08       3.43       1.39
C      16.68       2.12       1.71
C      16.55       4.52       2.10
C      15.67       4.28       3.18
C      15.31       2.96       3.54
C      15.80       1.88       2.77
C      19.08       1.65      39.12
C      19.64       2.65      38.29
C      19.43       4.01      38.62
C      18.63       4.38      39.72
C      17.41       1.13       0.89
C      14.49       2.70       4.76
C      20.31       2.26      37.01
C      -0.94      26.76      37.01
C       4.88      26.32       4.76
C      12.59       4.18       5.39
C      12.40       4.03       6.78
C      11.48       6.22       6.97
C      11.64       6.43       5.57
C      12.21       5.40       4.79
C      10.88       7.21       7.77
C      10.10       7.93       9.91
C       9.57       9.12       9.37
C       9.72       9.34       7.99
C      10.40       8.41       7.17
C      10.57       8.62       5.78
C      11.20       7.64       4.99
C      14.73      17.16      18.77
C      14.70      17.40      20.16
C      17.06      17.10      20.34
C      17.16      16.86      18.95
C      15.98      16.88      18.17
C      18.22      17.12      21.15
C      19.23      17.45      23.29
C      20.53      17.30      22.75
C      20.64      17.06      21.36
C      19.49      16.94      20.55
C      19.59      16.69      19.16
C      18.43      16.64      18.37
C      24.91       8.81      32.14
C      25.13       8.72      33.53
C      23.69       6.83      33.72
C      23.43       6.86      32.32
C      24.04       7.87      31.54
C      23.13       5.81      34.52
C      22.91       4.78      36.67
C      22.13       3.73      36.13
C      21.87       3.75      34.74
C      22.34       4.80      33.93
C      22.08       4.84      32.54
C      22.61       5.87      31.75
C       6.78      24.84       5.39
C       6.97      25.00       6.78
C       7.89      22.80       6.97
C       7.73      22.59       5.57
C       7.16      23.62       4.79
C       8.49      21.81       7.77
C       9.27      21.09       9.91
C       9.79      19.90       9.37
C       9.64      19.68       7.99
C       8.97      20.61       7.17
C       8.80      20.41       5.78
C       8.17      21.38       4.99
C       4.63      11.86      18.77
C       4.67      11.62      20.16
C       2.31      11.92      20.35
C       2.21      12.17      18.95
C       3.39      12.14      18.17
C       1.15      11.90      21.15
C       0.14      11.58      23.29
C      -1.16      11.72      22.75
C      -1.27      11.96      21.37
C      -0.13      12.08      20.55
C      -0.22      12.33      19.16
C       0.94      12.39      18.37
C      -5.54      20.21      32.14
C      -5.77      20.30      33.53
C      -4.33      22.19      33.72
C      -4.06      22.16      32.32
C      -4.67      21.15      31.55
C      -3.77      23.21      34.52
C      -3.54      24.24      36.67
C      -2.77      25.30      36.13
C      -2.50      25.28      34.74
C      -2.97      24.23      33.93
C      -2.71      24.18      32.54
C      -3.24      23.15      31.75
N      11.86       5.03      33.51
N      10.71       7.03      35.10
N       8.79      10.02      36.14
N      13.06       3.08      30.64
N      15.84      17.36       6.75
N      18.14      17.37       8.35
N      -9.21      17.53       9.39
N      13.55      17.30       3.88
N      24.53       7.75      20.13
N      23.38       5.76      21.73
N      21.75       2.60      22.77
N      -5.28       9.77      17.26
N       7.50      23.99      33.51
N       8.66      21.99      35.10
N      10.58      19.00      36.14
N       6.31      25.94      30.64
N       3.53      11.66       6.75
N       1.22      11.66       8.35
N      -2.33      11.49       9.39
N       5.82      11.72       3.88
N      -5.16      21.27      20.13
N      -4.02      23.26      21.73
N      -2.38      26.43      22.77
N      -6.26      19.25      17.26
N      11.86       5.03      20.51
N      10.71       7.03      22.10
N       8.79      10.02      23.14
N      13.06       3.08      17.64
N      15.84      17.36      33.89
N      18.14      17.37      35.48
N      -9.21      17.53      36.52
N      13.55      17.30      31.02
N      24.53       7.75       7.13
N      23.38       5.76       8.73
N      21.75       2.60       9.77
N      -5.28       9.77       4.26
N       7.50      23.99      20.51
N       8.66      21.99      22.10
N      10.58      19.00      23.14
N       6.31      25.94      17.64
N       3.53      11.66      33.89
N       1.22      11.66      35.48
N      -2.33      11.49      36.52
N       5.82      11.72      31.02
N      -5.16      21.27       7.13
N      -4.02      23.26       8.73
N      -2.38      26.43       9.77
N      -6.26      19.25       4.26
N      11.86       5.03       7.51
N      10.71       7.03       9.10
N       8.79      10.02      10.14
N      13.06       3.08       4.64
N      15.84      17.36      20.89
N      18.14      17.37      22.48
N      -9.21      17.53      23.52
N      13.55      17.30      18.02
N      24.53       7.75      34.26
N      23.38       5.76      35.86
N      21.75       2.60      36.90
N      -5.28       9.77      31.39
N       7.50      23.99       7.51
N       8.66      21.99       9.10
N      10.58      19.00      10.14
N       6.31      25.94       4.64
N       3.53      11.66      20.89
N       1.22      11.66      22.48
N      -2.33      11.49      23.52
N       5.82      11.72      18.02
N      -5.16      21.27      34.26
N      -4.02      23.26      35.86
N      -2.38      26.43      36.90
N      -6.26      19.25      31.39
