20

O       0.52      15.42       6.12
H       2.09      17.50       6.50
O       2.36      22.04       5.03
O      -0.42      15.52       4.10
H      -1.24      17.61       2.21
H       0.61      17.51       2.06
H       0.72      19.87       1.94
H      -1.13      20.00       2.15
O       1.07      21.92       3.21
C       0.69      17.38       4.85
C      -0.11      18.15       4.00
C      -0.01      19.52       3.95
C       1.60      19.45       5.75
C       1.50      18.05       5.78
C      -0.26      18.01       2.52
C      -0.18      19.52       2.47
C       0.92      20.19       4.76
H       2.29      19.94       6.42
C       0.36      15.98       4.98
C       1.43      21.49       4.35
