20

O       5.00       3.18       0.83
O       4.98      -3.18      -0.83
H       1.61       1.29      -0.01
H       1.64      -1.16      -0.06
H       7.03      -1.10      -0.68
H       6.33       1.19       1.14
H       6.26      -1.18       1.02
H       7.06       1.28      -0.58
C       2.54       0.78      -0.15
C       2.56      -0.62      -0.18
C       3.78      -1.30      -0.32
C       3.75       1.49      -0.15
C       6.28      -0.69       0.03
C       6.31       0.82       0.10
C       4.93      -0.56      -0.58
C       4.93       0.81      -0.50
O       2.77       3.28       1.04
O       2.76      -3.28      -1.04
C       3.83       2.76       0.55
C       3.82      -2.71      -0.62
