16

Cu       0.73       4.58       6.92
C       4.47       7.90      10.44
Cu       2.38       6.23       9.35
C       3.02       7.04      12.04
N      -0.25       3.62       5.53
N      -0.34       3.29       9.28
N       0.64       4.00       8.76
C      -1.36       2.92       5.83
N       1.32       4.66       9.75
N       0.78       4.35      10.92
N       3.37       7.19      10.74
C       0.09       3.78       4.23
N       3.45       7.52       6.99
N       2.47       6.81       7.51
N       1.79       6.16       6.52
N       2.34       6.47       5.35
