16

O       3.73      14.58       1.43
O       4.26      12.50       2.17
O       0.66      13.94       8.03
O       0.72      16.14       7.46
H       1.57      16.59       5.23
H       2.75      16.03       3.07
H       1.87      12.49       6.45
H       3.08      11.93       4.31
C       3.71      13.66       2.30
C       2.97      13.95       3.57
C       0.96      14.92       7.24
C       1.66      14.57       5.96
C       1.90      15.57       5.01
C       2.55      15.26       3.82
C       2.07      13.25       5.70
C       2.73      12.94       4.52
