16

H       7.28       3.52      14.95
H       8.14       7.07      11.58
H       6.94       7.62      13.73
C       6.32       5.91      15.73
C       7.05       5.61      14.46
O       6.29       5.00      16.62
O       5.76       7.06      15.84
C       8.12       3.99      13.01
C       7.47       4.29      14.21
C       7.94       6.31      12.33
C       7.28       6.61      13.51
C       8.36       4.99      12.06
C       9.06       4.65      10.78
O       9.37       5.64      10.01
O       9.30       3.43      10.55
H       8.44       2.97      12.79
