612

C       8.89      55.27      24.28
C       8.77      56.67      24.09
C       9.04      57.25      22.84
C       9.45      56.43      21.76
C       9.55      55.04      21.93
C       9.26      54.46      23.18
C       8.89      31.62       8.05
C       8.77      30.76       6.94
C       9.03      29.38       7.07
C       9.44      28.86       8.31
C       9.55      29.71       9.44
C       9.26      31.08       9.30
C       8.89      29.41      36.65
C       8.77      28.87      37.95
C       9.04      29.67      39.09
C       9.45      31.01      38.91
C       9.55      31.56      37.62
C       9.26      30.76      36.49
C       8.88     -17.00      44.38
C       8.77     -18.40      44.57
C       9.03     -18.98      45.82
C       9.44     -18.16      46.89
C       9.55     -16.76      46.73
C       9.25     -16.19      45.47
C       8.89       6.66      60.60
C       8.77       7.52      61.71
C       9.03       8.90      61.59
C       9.44       9.42      60.34
C       9.55       8.58      59.22
C       9.26       7.20      59.35
C       8.90       8.88      32.00
C       8.77       9.42      30.70
C       9.04       8.62      29.57
C       9.45       7.28      29.74
C       9.56       6.73      31.03
C       9.26       7.53      32.16
C       1.15      16.03      44.38
C       1.27      17.42      44.57
C       1.01      18.01      45.83
C       0.60      17.19      46.90
C       0.49      15.79      46.73
C       0.78      15.22      45.47
C       1.16      -7.63      60.59
C       1.27      -8.49      61.71
C       1.01      -9.87      61.59
C       0.60     -10.39      60.34
C       0.49      -9.55      59.21
C       0.79      -8.17      59.34
C       1.16      -9.85      32.01
C       1.28     -10.38      30.70
C       1.01      -9.59      29.57
C       0.60      -8.25      29.75
C       0.49      -7.69      31.04
C       0.79      -8.50      32.16
C       1.16      22.26      24.28
C       1.28      20.86      24.09
C       1.01      20.28      22.83
C       0.60      21.10      21.76
C       0.50      22.50      21.93
C       0.79      23.07      23.19
C       1.16      45.91       8.06
C       1.28      46.77       6.94
C       1.01      48.15       7.06
C       0.60      48.67       8.31
C       0.49      47.83       9.44
C       0.79      46.45       9.30
C       1.16      48.14      36.66
C       1.28      48.67      37.97
C       1.02      47.87      39.10
C       0.61      46.53      38.92
C       0.50      45.98      37.63
C       0.79      46.79      36.50
C       0.73      49.32      12.90
C       9.43      49.79      13.15
C       9.13      50.48      14.33
C       0.14      50.75      15.27
C       1.71      49.59      13.87
C       9.91      51.44      16.48
C       0.92      52.13      17.18
C       0.62      52.80      18.37
C       9.32      52.79      18.91
C       8.34      52.08      18.18
C       8.92      53.46      20.17
C       1.12      48.56      11.68
C       0.73      24.76      18.91
C       9.43      24.74      18.38
C       9.13      25.41      17.18
C       0.14      26.10      16.49
C       1.71      25.46      18.18
C       9.91      26.80      15.28
C       0.92      27.06      14.34
C       0.62      27.75      13.15
C       9.32      28.22      12.90
C       8.34      27.95      13.88
C       8.92      28.98      11.68
C       1.12      24.08      20.18
C       0.73      42.24      37.17
C       9.43      41.79      37.46
C       9.13      40.42      37.47
C       0.14      39.47      37.22
C       1.71      41.26      36.92
C       9.91      38.07      37.22
C       0.92      37.13      37.47
C       0.62      35.76      37.46
C       9.32      35.30      37.18
C       8.33      36.29      36.93
C       8.92      33.87      37.13
C       1.12      43.68      37.13
C       0.73     -11.04      55.75
C       9.43     -11.51      55.50
C       9.13     -12.20      54.32
C       0.14     -12.46      53.38
C       1.71     -11.32      54.78
C       9.91     -13.16      52.17
C       0.92     -13.85      51.47
C       0.61     -14.52      50.28
C       9.31     -14.50      49.74
C       8.33     -13.80      50.47
C       8.92     -15.18      48.48
C       1.12     -10.28      56.97
C       0.72      13.53      49.75
C       9.43      13.55      50.28
C       9.12      12.87      51.47
C       0.13      12.19      52.17
C       1.71      12.82      50.47
C       9.91      11.49      53.38
C       0.92      11.23      54.32
C       0.61      10.53      55.50
C       9.31      10.06      55.75
C       8.33      10.34      54.78
C       8.92       9.30      56.97
C       1.12      14.21      48.48
C       0.73      -3.95      31.48
C       9.43      -3.50      31.19
C       9.13      -2.13      31.18
C       0.14      -1.18      31.43
C       1.71      -2.97      31.72
C       9.91       0.22      31.43
C       0.92       1.16      31.18
C       0.62       2.53      31.19
C       9.32       2.99      31.47
C       8.34       2.00      31.72
C       8.93       4.42      31.52
C       1.13      -5.39      31.52
C       0.14      50.38      33.80
C       1.31      50.53      33.01
C       1.28      51.23      31.79
C       0.06      51.77      31.32
C       8.97      50.96      33.29
C       9.96      52.48      30.10
C       8.76      52.55      29.36
C       8.73      53.27      28.15
C       9.87      53.96      27.68
C       1.03      53.87      28.47
C       9.91      54.75      26.42
C       0.10      49.67      35.11
C       0.16      42.31       7.51
C       1.32      41.55       7.84
C       1.28      40.15       7.85
C       0.07      39.47       7.56
C       9.00      41.58       7.21
C       9.98      38.06       7.57
C       8.77      37.38       7.83
C       8.73      35.98       7.82
C       9.89      35.22       7.52
C       1.06      35.95       7.25
C       9.94      33.74       7.47
C       0.12      43.79       7.45
C       0.15      23.60      27.67
C       1.31      24.23      28.17
C       1.28      24.94      29.38
C       0.06      25.05      30.10
C       8.98      23.72      28.43
C       9.97      25.76      31.32
C       8.76      26.35      31.76
C       8.73      27.04      32.99
C       9.88      27.13      33.81
C       1.05      26.50      33.33
C       9.92      27.82      35.12
C       0.11      22.81      26.40
C       0.17     -12.13      34.85
C       1.32     -12.21      35.67
C       1.28     -12.90      36.90
C       0.08     -13.50      37.33
C       9.01     -12.76      35.32
C       9.98     -14.20      38.56
C       8.77     -14.32      39.27
C       8.73     -15.03      40.49
C       9.90     -15.66      40.99
C       1.07     -15.52      40.23
C       9.94     -16.44      42.26
C       0.13     -11.44      33.53
C       0.16      -4.03      61.14
C       1.32      -3.28      60.80
C       1.28      -1.87      60.79
C       0.08      -1.19      61.08
C       9.00      -3.30      61.44
C       9.99       0.22      61.08
C       8.77       0.90      60.82
C       8.74       2.30      60.83
C       9.90       3.06      61.12
C       1.07       2.33      61.39
C       9.94       4.54      61.17
C       0.12      -5.51      61.20
C       0.15      14.68      41.00
C       1.31      14.04      40.50
C       1.28      13.33      39.28
C       0.06      13.22      38.57
C       8.98      14.54      40.23
C       9.97      12.51      37.34
C       8.77      11.93      36.89
C       8.73      11.24      35.67
C       9.89      11.15      34.86
C       1.05      11.76      35.34
C       9.93      10.45      33.54
C       0.10      15.46      42.26
C       0.01      60.85      23.01
C       8.81      61.45      23.43
C       8.79      62.75      23.97
C      10.00      63.46      24.13
C       1.18      61.64      23.12
C       0.05     -13.81      24.84
C       1.26     -13.32      25.38
C       1.24     -12.20      26.23
C       0.02     -11.54      26.54
C       8.87     -12.03      25.91
C       9.92     -10.45      27.54
C       0.13      59.44      22.57
C       0.01      27.73       3.86
C       8.80      27.79       3.14
C       8.78      27.61       1.74
C       9.99      27.39       1.04
C       1.18      27.43       3.13
C       0.05     -11.86      67.61
C       1.26     -11.64      66.91
C       1.23     -11.46      65.52
C       0.02     -11.52      64.79
C       8.86     -11.82      65.53
C       9.91     -11.20      63.34
C       0.12      28.05       5.31
C       0.02      27.72      42.12
C       8.82      27.06      42.43
C       8.80      25.94      43.28
C      10.01      25.45      43.82
C       1.19      27.23      42.74
C       0.06      24.22      44.54
C       1.27      23.50      44.69
C       1.25      22.20      45.24
C       0.03      21.61      45.66
C       8.88      22.40      45.55
C       9.92      20.19      46.10
C       0.14      28.81      41.11
C       0.01     -22.58      45.65
C       8.81     -23.18      45.24
C       8.79     -24.47      44.70
C      10.00     -25.19      44.54
C       1.18     -23.36      45.55
C       0.06      52.09      43.83
C       1.27      51.59      43.29
C       1.25      50.47      42.44
C       0.03      49.81      42.13
C       8.87      50.30      42.76
C       9.93      48.72      41.13
C       0.13     -21.16      46.10
C       0.01      10.55      64.79
C       8.80      10.49      65.52
C       8.78      10.67      66.91
C       9.99      10.89      67.61
C       1.17      10.86      65.53
C       0.05      50.14       1.04
C       1.26      49.92       1.74
C       1.24      49.74       3.14
C       0.02      49.80       3.86
C       8.86      50.10       3.13
C       9.92      49.48       5.31
C       0.12      10.23      63.34
C       0.01      10.57      26.53
C       8.81      11.23      26.23
C       8.79      12.35      25.37
C      10.00      12.84      24.83
C       1.18      11.05      25.90
C       0.05      14.07      24.12
C       1.26      14.79      23.95
C       1.24      16.08      23.41
C       0.02      16.68      23.00
C       8.87      15.90      23.11
C       9.92      18.10      22.56
C       0.13       9.48      27.54
H       9.66      56.85      20.86
H       9.37      53.45      23.32
H       8.50      57.26      24.88
H       7.89      55.06      26.01
H       0.75      53.65      21.14
H       8.24      58.86      21.94
H       9.65      27.86       8.40
H       9.36      31.70      10.11
H       8.50      31.14       6.03
H       7.92      33.22       7.33
H       0.74      29.72      11.03
H       8.23      27.79       6.13
H       9.66      31.58      39.73
H       9.36      31.15      35.55
H       8.51      27.89      38.07
H       7.90      28.00      35.61
H       0.74      32.93      36.81
H       8.25      29.64      40.93
H       9.65     -18.58      47.80
H       9.36     -15.18      45.33
H       8.50     -19.00      43.78
H       7.92     -16.84      42.62
H       0.74     -15.38      47.51
H       8.23     -20.59      46.73
H       9.65      10.42      60.25
H       9.37       6.58      58.55
H       8.50       7.14      62.62
H       7.93       5.06      61.33
H       0.74       8.56      57.62
H       8.23      10.49      62.53
H       9.66       6.71      28.92
H       9.37       7.14      33.10
H       8.51      10.40      30.58
H       7.92      10.30      33.03
H       0.75       5.36      31.84
H       8.24       8.65      27.72
H       0.39      17.61      47.81
H       0.67      14.21      45.34
H       1.54      18.02      43.78
H       2.12      15.86      42.63
H       9.29      14.41      47.51
H       1.81      19.61      46.73
H       0.39     -11.39      60.25
H       0.68      -7.55      58.54
H       1.54      -8.11      62.62
H       2.14      -6.03      61.29
H       9.30      -9.54      57.62
H       1.80     -11.45      62.53
H       0.39      -7.67      28.93
H       0.68      -8.11      33.10
H       1.54     -11.36      30.58
H       2.15     -11.25      33.05
H       9.30      -6.32      31.84
H       1.81      -9.61      27.73
H       0.40      20.69      20.85
H       0.68      24.08      23.32
H       1.54      20.27      24.87
H       2.13      22.43      26.03
H       9.30      23.89      21.15
H       1.81      18.68      21.93
H       0.39      49.67       8.40
H       0.68      45.83      10.11
H       1.54      46.39       6.03
H       2.14      44.31       7.35
H       9.30      47.81      11.03
H       1.81      49.73       6.12
H       0.40      45.95      39.74
H       0.68      46.40      35.56
H       1.55      49.65      38.09
H       2.11      49.59      35.65
H       9.30      44.61      36.82
H       1.82      47.89      40.94
H       7.37      52.03      18.50
H       1.88      52.16      16.81
H       1.37      53.31      18.85
H       2.68      49.29      13.75
H       8.68      49.63      12.48
H       8.17      50.82      14.48
H       8.56      52.70      20.87
H       8.09      54.13      19.94
H       1.49      47.57      11.99
H       1.96      49.10      11.22
H       7.37      28.25      13.76
H       1.87      26.72      14.49
H       1.37      27.91      12.48
H       2.68      25.51      18.51
H       8.68      24.23      18.85
H       8.17      25.38      16.82
H       8.56      29.96      11.99
H       8.09      28.44      11.22
H       1.49      24.84      20.87
H       1.96      23.41      19.94
H       7.37      36.03      36.73
H       1.87      37.43      37.68
H       1.37      35.10      37.66
H       2.68      41.52      36.71
H       8.68      42.45      37.66
H       8.17      40.12      37.69
H       8.55      33.65      36.13
H       8.09      33.74      37.83
H       1.49      43.90      36.12
H       1.96      43.81      37.82
H       7.37     -13.75      50.14
H       1.87     -13.88      51.83
H       1.37     -15.03      49.80
H       2.68     -11.01      54.90
H       8.67     -11.35      56.17
H       8.17     -12.54      54.17
H       8.56     -14.42      47.78
H       8.08     -15.85      48.71
H       1.49      -9.30      56.66
H       1.95     -10.82      57.43
H       7.37      10.03      54.90
H       1.87      11.56      54.17
H       1.37      10.37      56.17
H       2.67      12.77      50.14
H       8.67      14.05      49.81
H       8.17      12.91      51.84
H       8.56       8.32      56.66
H       8.09       9.84      57.43
H       1.48      13.45      47.78
H       1.95      14.88      48.72
H       7.37       2.26      31.93
H       1.88       0.86      30.96
H       1.37       3.19      30.99
H       2.68      -3.23      31.93
H       8.68      -4.16      31.00
H       8.17      -1.83      30.97
H       8.57       4.64      32.53
H       8.09       4.55      30.82
H       1.49      -5.61      32.53
H       1.96      -5.52      30.83
H       1.89      54.34      28.19
H       7.92      52.06      29.67
H       7.85      53.29      27.63
H       8.09      50.89      33.81
H       2.20      50.13      33.31
H       2.13      51.31      31.24
H       0.77      54.40      25.85
H       0.08      55.80      26.69
H       9.29      48.95      35.05
H       9.86      50.40      35.88
H       1.94      35.46       7.02
H       7.92      37.90       8.06
H       7.85      35.51       8.04
H       8.13      42.06       6.97
H       2.20      42.02       8.07
H       2.13      39.63       8.10
H       0.76      33.42       8.10
H       0.15      33.43       6.45
H       9.28      44.11       8.06
H       9.94      44.09       6.42
H       1.91      26.53      33.87
H       7.92      26.31      31.19
H       7.85      27.47      33.27
H       8.11      23.29      28.12
H       2.20      24.19      27.66
H       2.13      25.40      29.72
H       0.77      28.51      35.09
H       0.11      27.08      35.90
H       9.28      23.20      25.81
H       9.90      21.77      26.65
H       1.95     -15.95      40.55
H       7.91     -13.87      38.93
H       7.85     -15.08      40.99
H       8.14     -12.74      34.78
H       2.19     -11.77      35.39
H       2.13     -12.94      37.47
H       0.76     -16.04      42.85
H       0.16     -17.48      42.01
H       9.28     -10.76      33.56
H       9.95     -12.19      32.76
H       1.95       2.81      61.61
H       7.92       0.38      60.60
H       7.85       2.77      60.62
H       8.13      -3.78      61.69
H       2.20      -3.74      60.57
H       2.13      -1.35      60.54
H       0.76       4.86      60.53
H       0.16       4.85      62.19
H       9.28      -5.83      60.59
H       9.94      -5.81      62.23
H       1.92      11.73      34.81
H       7.92      11.98      37.46
H       7.85      10.81      35.38
H       8.10      14.98      40.54
H       2.19      14.09      41.01
H       2.13      12.88      38.95
H       0.77       9.76      33.58
H       0.13      11.20      32.77
H       9.28      15.07      42.85
H       9.88      16.50      42.01
H       7.95     -11.61      26.10
H       2.15     -13.80      25.23
H       2.12     -11.90      26.66
H       2.09      61.26      22.85
H       7.93      60.93      23.39
H       7.90      63.12      24.31
H       9.14     -10.75      28.25
H       9.58      -9.54      27.04
H       0.91      58.97      23.18
H       0.47      59.42      21.53
H       7.95     -11.87      65.07
H       2.14     -11.53      67.41
H       2.11     -11.23      65.05
H       2.09      27.38       3.59
H       7.92      28.01       3.61
H       7.90      27.72       1.25
H       9.14     -10.43      63.25
H       9.58     -12.09      62.80
H       0.90      28.81       5.41
H       0.46      27.16       5.85
H       7.96      22.02      45.82
H       2.16      23.87      44.34
H       2.13      21.68      45.28
H       2.10      27.65      42.55
H       7.94      27.36      42.00
H       7.91      25.46      43.44
H       9.14      19.73      45.49
H       9.59      20.17      47.14
H       0.91      28.51      40.40
H       0.48      29.72      41.61
H       7.96      49.87      42.57
H       2.15      52.08      43.44
H       2.13      50.18      42.01
H       2.09     -22.99      45.82
H       7.93     -22.66      45.28
H       7.90     -24.85      44.36
H       9.15      49.02      40.42
H       9.59      47.81      41.63
H       0.90     -20.70      45.49
H       0.46     -21.14      47.14
H       7.95      50.14       3.59
H       2.14      49.81       1.25
H       2.12      49.52       3.60
H       2.09      10.90      65.07
H       7.92      10.27      65.05
H       7.89      10.56      67.41
H       9.14      48.71       5.40
H       9.58      50.37       5.85
H       0.90       9.47      63.25
H       0.46      11.13      62.80
H       7.95      16.27      22.84
H       2.15      14.41      24.30
H       2.12      16.60      23.37
H       2.09      10.63      26.09
H       7.93      10.94      26.65
H       7.90      12.83      25.22
H       9.14      18.56      23.17
H       9.58      18.12      21.52
H       0.91       9.78      28.24
H       0.46       8.56      27.03
N       8.72      54.66      25.54
N       9.99      54.26      20.83
N       8.89      58.65      22.71
N       8.72      33.02       7.95
N       9.99      29.15      10.66
N       8.88      28.57       5.92
N       8.72      28.62      35.49
N       9.99      32.90      37.49
N       8.89      29.08      40.36
N       8.71     -16.40      43.11
N       9.98     -15.98      47.82
N       8.88     -20.38      45.96
N       8.72       5.26      60.71
N       9.99       9.13      57.99
N       8.88       9.72      62.73
N       8.72       9.67      33.16
N       9.99       5.39      31.15
N       8.89       9.21      28.29
N       1.32      15.42      43.11
N       0.05      15.01      47.83
N       1.16      19.40      45.96
N       1.33      -6.23      60.70
N       0.06     -10.11      57.99
N       1.16     -10.68      62.73
N       1.33     -10.64      33.17
N       0.06      -6.36      31.16
N       1.16     -10.17      28.30
N       1.33      22.86      25.55
N       0.06      23.28      20.83
N       1.16      18.88      22.70
N       1.33      44.51       7.95
N       0.06      48.39      10.66
N       1.16      48.96       5.92
N       1.33      48.94      35.50
N       0.06      44.65      37.50
N       1.17      48.45      40.37
N       1.39      50.29      14.99
N       8.66      51.46      17.02
N       1.39      26.09      17.02
N       8.66      27.26      15.00
N       1.39      39.94      36.96
N       8.66      37.60      36.97
N       1.39     -12.01      53.65
N       8.66     -13.17      51.63
N       1.38      12.20      51.63
N       8.65      11.03      53.66
N       1.39      -1.65      31.68
N       8.66       0.69      31.68
N       8.96      51.61      32.10
N       1.04      53.15      29.62
N       8.99      40.23       7.26
N       1.07      37.30       7.29
N       8.98      24.44      29.58
N       1.05      25.87      32.13
N       9.00     -13.40      36.52
N       1.07     -14.81      39.08
N       9.00      -1.94      61.39
N       1.07       0.98      61.35
N       8.97      13.83      39.08
N       1.06      12.40      36.54
N       1.13      62.87      23.69
N       8.92     -13.13      25.13
N       1.12      27.31       1.78
N       8.92     -11.95      66.88
N       1.14      26.12      43.53
N       8.93      23.63      44.98
N       1.13     -24.59      44.98
N       8.93      51.40      43.54
N       1.12      10.98      66.88
N       8.91      50.23       1.78
N       1.13      12.16      25.12
N       8.92      14.67      23.67
