24

H       3.61      11.25       8.41
H       2.00      12.69       4.67
H       3.61      11.25       3.46
H       5.21       9.82       4.67
H       6.86       8.34       7.50
H       6.82       9.25       5.99
H       0.36      14.17       7.50
H       0.40      13.26       5.99
O       5.32       9.65       7.41
O       6.17       6.83       5.29
O       4.22       7.40       6.29
O       1.90      12.85       7.41
O       2.99      15.10       6.29
O       1.05      15.67       5.29
C       4.50      10.42       6.63
C       3.61      11.25       7.33
C       2.72      12.08       6.63
C       2.71      12.07       5.23
C       3.61      11.25       4.55
C       4.51      10.43       5.23
C       6.18       8.74       6.73
C       5.46       7.56       6.06
C       1.04      13.77       6.73
C       1.76      14.94       6.06
