16

O       3.14       6.25      19.01
O       1.05       6.99      18.57
O       1.10      -0.39      18.64
O      -0.97       0.31      19.05
C       1.91       6.12      18.81
C       1.43       4.67      18.84
C       1.54       3.89      19.98
C       1.16       2.56      19.97
C       0.68       1.95      18.83
C       0.59       2.72      17.69
C       0.95       4.05      17.70
F       2.00       4.42      21.12
F       0.16       2.17      16.55
F       0.82       4.76      16.56
F       1.26       1.85      21.12
C       0.24       0.49      18.83
