128

Cu       5.01       5.53       8.87
Cu       2.64       6.30       6.61
Cu       2.83      12.45      15.10
Cu      -0.03      13.23       1.38
Cu       0.22       8.32       7.11
Cu       2.58       7.55       9.37
Cu       2.40       1.40       0.88
Cu       5.25       0.62      14.60
H       4.52       7.70       7.62
H      -0.06       7.49      11.33
H       5.60       1.57       4.42
H       4.10       1.02       4.85
H       1.32       8.81      12.93
H       4.46      10.11      12.06
H       2.84       3.32       4.87
H       6.33       2.80       7.20
H       5.95       0.78       0.37
H       0.05       0.56      12.64
H       4.86       8.49       3.57
H       6.36       7.94       3.14
H      -1.33       1.89      11.04
H       3.37       3.18      11.90
H      -0.22      10.25       3.12
H       4.13       9.72       0.78
H       0.71       6.15       8.36
H       5.28       6.36       4.65
H      -0.38      12.28      11.56
H       1.12      12.83      11.12
H       3.90       5.04       3.05
H       0.76       3.74       3.92
H       2.39      10.53      11.11
H      -1.11      11.05       8.77
H      -0.72      13.07      15.61
H       5.18      13.29       3.34
H       0.37       5.36      12.41
H      -1.13       5.91      12.84
H       6.56      11.96       4.94
H       1.85      10.67       4.07
H       5.45       3.60      12.86
H       1.10       4.13      15.19
C       5.17       7.89      10.69
C      -1.82       8.71      11.60
C      -0.48       8.35      11.85
C       0.29       9.10      12.72
C      -0.23      10.26      13.33
C       0.63      11.07      14.26
C      -1.56      10.63      13.07
C      -2.21      11.84      13.67
C       5.50       9.84      12.23
C       3.61       3.48       5.61
C       5.42       3.22       6.81
C       2.66       0.97      13.28
C       1.80       1.79      12.37
C       0.47       1.42      12.12
C      -0.31       2.18      11.25
C       0.21       3.33      10.63
C      -0.64       4.15       9.70
C       1.55       3.70      10.89
C       2.20       4.92      10.29
C       2.33       2.92      11.74
C       6.86      10.41       2.37
C       5.04      10.14       1.18
C       0.05       5.96       5.29
C       7.04       5.14       4.38
C       5.71       5.50       4.13
C       4.93       4.75       3.26
C       5.45       3.59       2.64
C       4.59       2.78       1.72
C       6.78       3.22       2.90
C       7.44       2.01       2.30
C      -0.28       4.01       3.75
C       1.62      10.37      10.36
C      -0.19      10.63       9.17
C       2.56      12.88       2.70
C       3.42      12.06       3.61
C       4.75      12.43       3.86
C       5.53      11.67       4.73
C       5.01      10.52       5.34
C       5.87       9.70       6.27
C       3.68      10.15       5.08
C       3.02       8.93       5.69
C       2.89      10.93       4.24
C      -1.63       3.44      13.60
C       0.18       3.71      14.80
N       4.84       4.34       7.19
N       3.69       4.50       6.45
N       4.67       2.65       5.82
N       4.97       1.41       5.22
N       5.62      11.27       0.80
N       6.77      11.43       1.54
N       5.79       9.57       2.17
N       5.49       8.34       2.77
N       0.38       9.51       8.79
N       1.53       9.35       9.53
N       0.55      11.20      10.16
N       0.25      12.44      10.76
N      -0.40       2.58      15.18
N      -1.54       2.42      14.44
N      -0.56       4.28      13.81
N      -0.27       5.51      13.21
O       3.97       6.93       7.93
O       3.97       8.30      10.53
O       5.72       6.86      10.18
O       4.74      11.60      14.52
O      -1.85      12.99      13.24
O       0.12      11.67      15.24
O       1.89      11.08      13.99
O       6.49       0.01       0.05
O       3.87       1.38      13.44
O       2.12      13.79      13.78
O       3.10       4.68       9.45
O       1.84       6.07      10.72
O      -0.13       4.75       8.72
O       5.94       4.16       9.98
O       1.26       6.92       8.04
O       1.25       5.55       5.45
O      -0.49       6.99       5.79
O       0.49       2.25       1.46
O       7.07       0.86       2.73
O       5.11       2.18       0.73
O       3.33       2.77       1.99
O      -1.27      13.84      15.92
O       1.36      12.47       2.54
O       3.11       0.06       2.19
O       2.13       9.17       6.53
O       3.39       7.78       5.26
O       5.35       9.10       7.25
O      -0.72       9.69       6.00
