546

H      23.60      21.50      17.97
H      18.78      24.44      12.36
H       8.13      21.18      17.29
H      18.06      12.25      12.09
H      20.02      13.44      11.43
H      25.07      13.78      11.15
H      27.25      12.82      11.52
H      25.46       9.31      12.97
H      20.43       8.97      13.20
H      22.79      11.87      14.64
H      23.46       9.51      18.04
H      23.48       7.54      16.66
H      22.78       9.79      10.08
H      23.51       5.43      12.03
H      23.60       5.69       9.65
H      22.55      12.99      10.54
H      22.58      13.66      12.17
H      24.20       6.82      14.19
H      22.44       6.62      14.28
H      18.06      20.33      11.07
H      20.03      19.16      10.37
H      25.08      18.76      10.21
H      27.25      19.56      10.86
H      25.46      22.56      13.17
H      20.43      22.94      13.35
H      22.79      22.73      10.12
H      23.46      -5.22      10.47
H      23.48      -5.43      12.86
H      22.78      19.83      14.21
H      23.51      -8.39      17.00
H      22.56      18.62      11.21
H      22.59      19.70       9.81
H      24.20      -7.21      14.72
H      22.44      -7.03      14.85
H      18.06      15.40       4.58
H      20.03      15.39       5.95
H      25.08      15.45       6.37
H      27.25      15.62       5.36
H      25.46      16.12       1.60
H      20.43      16.08       1.18
H      22.79      13.39       2.98
H      23.45      -4.42      27.01
H      23.48      -2.24      25.99
H      22.78      18.38       3.45
H      23.51       2.83      26.48
H      23.60      20.80       0.12
H      22.56      16.39       5.99
H      22.59      14.63       5.76
H      24.20       0.26      26.61
H      22.44       0.28      26.39
H       2.73       3.70      15.66
H       4.70       2.51      16.33
H       9.75       2.17      16.60
H      11.92       3.13      16.23
H      10.13       6.64      14.78
H       5.10       6.99      14.55
H       7.46       4.08      13.11
H       8.13       6.44       9.71
H       8.16       8.42      11.09
H       7.45       6.17      17.67
H       8.19      10.52      15.72
H       8.28      10.26      18.10
H       7.23       2.97      17.22
H       7.26       2.29      15.58
H       8.87       9.13      13.56
H       7.12       9.34      13.47
H       2.73      -4.38      16.69
H       4.70      -3.21      17.39
H       9.75      -2.80      17.54
H      11.92      -3.60      16.89
H      10.13      -6.61      14.58
H       5.10      -6.99      14.40
H       7.46      -6.78      17.63
H       8.16      21.39      14.89
H       7.45      -3.87      13.55
H       8.18      24.34      10.75
H       8.27      -5.55       9.78
H       7.23      -2.67      16.54
H       7.26      -3.74      17.95
H       8.87      23.17      13.03
H       7.12      22.99      12.90
H       2.73       0.55      23.17
H       4.70       0.57      21.81
H       9.75       0.50      21.38
H      11.92       0.34      22.40
H      10.13      -0.16      26.16
H       5.10      -0.13      26.57
H       7.46       2.56      24.78
H       8.13      20.37       0.74
H       8.16      18.19       1.76
H       7.45      -2.43      24.30
H       8.18      13.13       1.27
H       8.27      -4.85      27.64
H       7.23      -0.43      21.76
H       7.26       1.32      21.99
H       8.87      15.69       1.14
H       7.12      15.67       1.36
H      27.55       8.91      10.93
H       1.33       5.76      16.21
H       3.45       6.88      12.75
H      28.29      11.42      14.23
H       1.62       8.24      12.06
H      30.15      10.04      14.86
H      27.55      21.00      14.54
H       1.33      -4.93      14.63
H       3.45      -8.49      15.39
H      28.30      22.60      10.72
H       1.63      22.31      14.56
H      30.15      23.84      11.60
H      27.55      18.09       2.27
H       1.33      -0.96      24.67
H       3.45       1.48      27.38
H      28.30      13.97       2.79
H       1.63      17.44       1.12
H      30.15      14.11       1.28
H      12.22       7.04      16.82
H      16.65      10.20      11.54
H      18.78       9.07      15.00
H      12.97       4.53      13.52
H      16.95       7.71      15.69
H      14.82       5.91      12.89
H      12.22      -5.04      13.21
H      16.66      20.88      13.12
H      12.97      -6.65      17.03
H      16.95      -6.36      13.19
H      14.82      -7.88      16.16
H      12.22      -2.13      25.49
H      16.65      16.91       3.08
H      18.78      14.47       0.37
H      12.97       1.98      24.96
H      16.95      -1.49      26.63
H      14.82       1.84      26.47
H      25.23      10.90       1.80
H      22.19       6.42       7.53
H      24.62       9.73       8.47
H      21.08      11.08       2.44
H      24.65      10.38       6.20
H      21.28       9.61       4.29
H      25.23      12.10      17.38
H      22.19      19.30      18.40
H      24.62      18.46      15.06
H      21.08      12.56      16.90
H      24.65      16.16      15.64
H      21.28      14.90      17.26
H      25.23      24.99       8.55
H      22.19      22.27       1.81
H      24.63      19.80       4.21
H      21.08      24.34       8.39
H      24.65      21.45       5.91
H      21.28      23.48       6.19
H       9.90       5.05      25.95
H       6.87       9.53      20.22
H       9.30       6.22      19.28
H       5.75       4.87      25.31
H       9.32       5.57      21.56
H       5.95       6.34      23.46
H       9.90       3.85      10.37
H       6.87      -3.35       9.36
H       9.30      -2.50      12.69
H       5.75       3.39      10.85
H       9.32      -0.21      12.12
H       5.95       1.05      10.50
H       9.90      -9.04      19.20
H       6.87      -6.32      25.94
H       9.30      -3.85      23.54
H       5.75      -8.39      19.36
H       9.32      -5.50      21.85
H       5.95      -7.53      21.56
C      23.15      23.07      15.01
C      23.15      24.55      12.93
C       7.97      22.09      16.86
C       8.01      25.15      11.35
C       1.54      23.33      14.58
C      15.70      24.07      13.65
C      23.38      21.60      16.97
C       7.91      23.60      13.34
C      17.95      23.94      12.70
C       7.99      22.22      15.45
C      29.96      23.15      13.60
C      22.94       8.74      11.90
C      23.15       7.47      12.49
C      23.15       8.53      14.82
C      22.95       9.80      14.23
C      22.90      10.95      15.07
C      23.07      10.87      16.47
C      23.30       9.60      17.03
C      23.31       8.45      16.22
C      23.34       6.35      11.63
C      23.38       6.51      10.23
C      23.22       7.78       9.63
C      22.93       8.86      10.49
C      21.52      10.62      12.48
C      21.41      11.93      11.95
C      23.96      12.11      11.83
C      24.07      10.80      12.37
C      25.14      12.83      11.54
C      26.42      12.27      11.75
C      26.54      10.97      12.26
C      25.37      10.26      12.57
C      20.34       9.92      12.83
C      19.05      10.49      12.73
C      18.97      11.79      12.18
C      20.13      12.49      11.79
C      22.86       9.99      12.74
C      22.62      12.73      11.60
C      23.24       7.30      13.97
C      22.94      21.93      14.20
C      22.95      23.41      12.12
C      22.90      23.57      10.71
C      23.07      24.81      10.08
C      23.30      -6.14      10.89
C      23.32      -6.27      12.30
C      23.34      -9.19      16.40
C      23.22      20.44      16.17
C      22.93      20.64      14.81
C      21.52      21.48      12.29
C      21.42      20.37      11.42
C      23.96      20.18      11.32
C      24.08      21.30      12.18
C      25.14      19.56      10.84
C      26.42      20.03      11.22
C      26.54      21.12      12.10
C      25.37      21.75      12.55
C      20.34      22.14      12.72
C      19.05      21.77      12.27
C      18.97      20.64      11.42
C      20.13      19.95      11.01
C      22.86      22.03      12.70
C      22.62      19.67      10.90
C      23.24      -7.64      14.42
C      22.94      17.32       1.63
C      23.15      17.45       0.24
C      23.15      -1.13      27.78
C      22.95      14.78       1.39
C      22.90      13.48       1.96
C      23.07      12.31       1.20
C      23.30      -3.59      27.60
C      23.31      -2.31      27.00
C      23.34       2.71      27.48
C      23.38      19.89       0.53
C      23.22      19.77       1.93
C      22.93      18.49       2.44
C      21.52      15.89       2.97
C      21.42      15.69       4.37
C      23.96      15.70       4.59
C      24.08      15.89       3.19
C      25.14      15.60       5.36
C      26.42      15.69       4.77
C      26.54      15.90       3.38
C      25.37      15.99       2.61
C      20.34      15.93       2.19
C      19.05      15.73       2.74
C      18.97      15.56       4.14
C      20.13      15.54       4.94
C      22.86      15.98       2.29
C      22.62      15.60       5.24
C      23.24       0.21      27.13
C       7.61       7.21      15.85
C       7.82       8.48      15.26
C       7.82       7.42      12.94
C       7.62       6.15      13.52
C       7.57       5.01      12.68
C       7.74       5.08      11.29
C       7.97       6.35      10.72
C       7.99       7.51      11.53
C       8.01       9.60      16.12
C       8.06       9.45      17.52
C       7.89       8.18      18.12
C       7.60       7.09      17.26
C       6.19       5.34      15.28
C       6.09       4.02      15.80
C       8.63       3.84      15.92
C       8.75       5.15      15.38
C       9.81       3.12      16.22
C      11.09       3.68      16.00
C      11.21       4.99      15.49
C      10.04       5.70      15.18
C       5.01       6.04      14.92
C       3.73       5.47      15.03
C       3.64       4.17      15.58
C       4.80       3.46      15.96
C       7.53       5.97      15.01
C       7.29       3.22      16.16
C       7.91       8.65      13.78
C       7.61      -5.97      13.55
C       7.82      -7.12      12.74
C       7.82      23.48      14.82
C       7.63      -7.46      15.64
C       7.57      -7.61      17.05
C       7.74      -8.86      17.68
C       8.05      -5.64      10.78
C       7.89      -4.49      11.58
C       7.60      -4.69      12.95
C       6.19      -5.53      15.46
C       6.09      -4.42      16.34
C       8.63      -4.23      16.43
C       8.75      -5.35      15.57
C       9.81      -3.61      16.91
C      11.09      -4.08      16.54
C      11.22      -5.17      15.66
C      10.04      -5.80      15.20
C       5.01      -6.19      15.04
C       3.73      -5.81      15.48
C       3.64      -4.69      16.33
C       4.80      -4.00      16.75
C       7.54      -6.07      15.05
C       7.30      -3.71      16.85
C       7.61      -1.37      26.12
C       7.82      -1.50      27.51
C       7.82       1.05      27.76
C       7.63       1.18      26.36
C       7.57       2.47      25.79
C       7.74       3.64      26.56
C       7.97      19.54       0.16
C       7.99      18.26       0.75
C       8.01      13.24       0.27
C       8.06      -3.94      27.22
C       7.89      -3.82      25.82
C       7.60      -2.54      25.31
C       6.19       0.06      24.78
C       6.09       0.26      23.38
C       8.63       0.25      23.17
C       8.75       0.06      24.57
C       9.81       0.36      22.39
C      11.09       0.27      22.99
C      11.22       0.05      24.37
C      10.04      -0.03      25.14
C       5.01       0.02      25.57
C       3.73       0.22      25.02
C       3.64       0.39      23.62
C       4.80       0.41      22.81
C       7.54      -0.02      25.46
C       7.30       0.36      22.51
C       7.91      15.74       0.62
C      27.79      10.32      12.48
C      28.56      10.63      13.63
C      29.63       9.81      14.01
C      29.96       8.65      13.27
C      29.21       8.34      12.10
C      28.13       9.18      11.73
C       0.37       7.81      13.72
C       0.28       7.06      14.92
C       1.39       6.26      15.33
C       2.58       6.19      14.57
C       2.62       6.92      13.35
C       1.54       7.71      12.93
C      27.79      21.64      12.54
C      28.56      22.47      11.70
C      29.63      23.22      12.23
C      29.21      22.30      14.45
C      28.13      21.56      13.91
C       0.37      -8.12      14.10
C       0.29      -6.70      14.15
C       1.39      -5.95      14.64
C       2.58      -6.57      15.08
C       2.62      -7.99      15.06
C      27.79      16.03       2.71
C      28.56      14.89       2.41
C      29.63      14.97       1.50
C      29.96      16.19       0.87
C      29.21      17.35       1.19
C      28.13      17.26       2.10
C       0.37       0.18      27.70
C       0.29      -0.49      26.45
C       1.39      -0.44      25.56
C       2.58       0.25      25.88
C       2.62       0.94      27.11
C       1.54      16.95       0.23
C      12.46       5.63      15.27
C      13.23       5.32      14.13
C      14.30       6.15      13.74
C      14.63       7.30      14.49
C      13.88       7.61      15.65
C      12.80       6.78      16.02
C      15.70       8.15      14.04
C      15.61       8.90      12.83
C      16.71       9.69      12.43
C      17.91       9.76      13.19
C      17.95       9.03      14.40
C      16.87       8.24      14.82
C      12.46      -5.68      15.21
C      13.23      -6.52      16.05
C      14.30      -7.26      15.53
C      14.64      -7.20      14.15
C      13.88      -6.34      13.30
C      12.80      -5.61      13.84
C      15.61      22.65      13.60
C      16.72      21.90      13.12
C      17.91      22.53      12.68
C      16.87      -7.38      13.18
C      12.46      -0.08      25.04
C      13.23       1.07      25.34
C      14.30       0.99      26.25
C      14.63      -0.24      26.88
C      13.88      -1.40      26.57
C      12.80      -1.30      25.66
C      15.70      15.77       0.05
C      15.61      16.44       1.30
C      16.72      16.39       2.20
C      17.91      15.70       1.88
C      17.95      15.01       0.64
C      16.87      -0.99      27.53
C      23.13      11.07       1.90
C      21.99      10.65       2.62
C      22.11       9.78       3.72
C      23.38       9.32       4.14
C      24.53       9.68       3.38
C      24.38      10.54       2.26
C      23.48       8.76       5.46
C      22.78       7.59       5.87
C      22.75       7.23       7.24
C      23.39       8.02       8.23
C      24.14       9.14       7.79
C      24.17       9.51       6.44
C      23.12      12.10      17.19
C      21.99      12.93      17.19
C      22.11      14.32      17.39
C      23.38      14.92      17.58
C      24.53      14.08      17.65
C      24.38      12.68      17.46
C      23.49      16.34      17.41
C      22.78      17.27      18.21
C      22.75      18.65      17.84
C      23.39      19.11      16.67
C      24.14      18.17      15.91
C      24.17      16.81      16.27
C      23.13      24.82       8.65
C      21.99      24.41       7.93
C      22.11      23.89       6.63
C      23.38      23.76       6.01
C      24.53      24.24       6.71
C      24.38      24.77       8.01
C      23.49      22.90       4.87
C      22.78      23.12       3.66
C      22.75      22.12       2.65
C      23.39      20.87       2.84
C      24.14      20.69       4.03
C      24.17      21.67       5.03
C       7.80       4.88      25.85
C       6.66       5.31      25.13
C       6.79       6.17      24.03
C       8.05       6.63      23.61
C       9.20       6.27      24.37
C       9.06       5.41      25.49
C       8.16       7.19      22.29
C       7.45       8.36      21.88
C       7.43       8.72      20.51
C       8.06       7.94      19.52
C       8.81       6.82      19.96
C       8.84       6.44      21.31
C       7.80       3.86      10.57
C       6.66       3.02      10.56
C       6.78       1.63      10.36
C       8.05       1.04      10.17
C       9.20       1.88      10.10
C       9.06       3.28      10.29
C       8.16      -0.38      10.34
C       7.45      -1.32       9.54
C       7.43      -2.69       9.91
C       8.06      -3.15      11.09
C       8.81      -2.22      11.84
C       8.84      -0.86      11.49
C       7.80      -8.87      19.10
C       6.66      -8.46      19.83
C       6.79      -7.94      21.13
C       8.05      -7.80      21.74
C       9.20      -8.28      21.05
C       9.06      -8.82      19.74
C       8.16      -6.94      22.88
C       7.45      -7.17      24.10
C       7.43      -6.16      25.10
C       8.06      -4.91      24.91
C       8.81      -4.73      23.72
C       8.84      -5.72      22.73
N      29.51      22.25      15.83
N      29.51       7.17      11.37
N      29.75       7.10      15.68
N      29.75      -6.06      13.73
N      29.51      18.58       0.54
N      29.75      -1.17      26.11
N      14.18       8.78      16.39
N      14.42       8.85      12.07
N      14.19      -6.29      11.92
N      14.42      22.02      14.02
N      14.19      -2.62      27.21
N      14.42      17.12       1.65
N      25.80       9.23       3.79
N      22.11       6.82       4.89
N      25.80      14.66      17.83
N      22.11      16.82      19.37
N      25.80      24.10       6.11
N      22.11      24.36       3.48
N      10.48       6.72      23.96
N       6.78       9.13      22.86
N      10.48       1.30       9.92
N       6.78      -0.86       8.38
N      10.48      -8.15      21.64
N       6.78      -8.40      24.28
O      13.22      25.39      11.22
O      29.96       7.54      16.84
O      29.82       7.44      10.18
O      28.55       6.37      11.36
O      29.22       5.97      15.77
O      29.96      -5.27      12.78
O      29.82      21.08      16.19
O      28.55      -9.44      16.53
O      29.22      -5.42      14.67
O      29.96      -2.39      25.90
O      29.82      19.47       1.37
O      28.55       2.94      27.63
O      29.22      -0.67      25.08
O      14.63       8.42      10.91
O      14.49       8.51      17.58
O      13.22       9.59      16.39
O      13.89       9.99      11.99
O      14.63      21.23      14.98
O      14.49      -5.13      11.56
O      13.89      21.37      13.08
O      14.63      18.34       1.85
O      14.49      -3.52      26.38
O      13.22      13.01       0.12
O      13.89      16.63       2.67
O      20.87       6.75       5.12
O      26.57      10.19       4.08
O      26.35       8.54       2.90
O      22.57       5.65       4.84
O      20.88      17.05      19.31
O      26.57      14.43      16.86
O      26.35      14.23      18.88
O      22.57      17.36      20.41
O      20.87      24.19       3.30
O      26.57      23.38       6.80
O      26.35      25.22       5.96
O      22.57      24.98       2.49
O       5.55       9.20      22.63
O      11.24       5.76      23.67
O      11.03       7.41      24.85
O       7.25      10.30      22.91
O       5.55      -1.10       8.44
O      11.24       1.53      10.90
O      11.02       1.72       8.88
O       7.25      -1.40       7.35
O       5.55      -8.23      24.45
O      11.24      -7.42      20.95
O      11.02      -9.27      21.80
O       7.24      -9.03      25.26
