44

O       6.83       9.15       9.52
O       7.99       7.36      10.35
O      10.73      14.12      -1.24
O      12.66      13.21      -2.05
C       7.73       8.24       9.47
C       8.62       8.26       8.26
C       8.60       9.34       7.36
C       9.54       9.43       6.33
C      10.51       8.43       6.16
C      10.45       7.30       7.00
C       9.53       7.22       8.04
C      11.56       8.56       5.12
H       7.85      10.11       7.48
C      12.71       7.75       5.18
H      11.13       6.46       6.84
H       9.50       6.35       8.69
H       9.56      10.28       5.66
C      10.83      12.23       0.90
C      10.95      11.29       1.93
C      12.18      10.66       2.17
C      13.30      11.04       1.40
H      10.10      11.02       2.54
C      12.33       9.59       3.19
C      13.42       8.71       3.12
H      14.28      10.64       1.62
C      13.16      11.95       0.35
H       9.88      12.72       0.71
C      11.75      13.37      -1.16
H      14.02      12.22      -0.26
H      14.07       8.74       2.25
H      12.87       7.11       6.04
C      11.92      12.53       0.07
C      14.90       5.77       4.97
H      14.07       5.48       5.60
C      16.04       4.98       4.96
H      15.98       8.05       2.69
H      17.91       6.47       2.72
C      15.95       7.17       3.33
C      17.04       6.32       3.36
C      13.65       7.79       4.15
C      14.83       6.91       4.15
N      17.10       5.25       4.17
N      11.39       9.49       4.16
H      16.14       4.11       5.60
