45

O       2.87       8.20      11.90
O       3.82       9.61      10.36
O      -9.45       8.47      13.06
O     -10.41      10.50      12.66
C       2.83       9.07      10.98
C       1.47       9.57      10.58
C       0.35       9.24      11.35
C      -0.88       9.84      11.10
C      -1.02      10.77      10.06
C       0.10      11.04       9.24
C       1.33      10.45       9.51
C      -2.30      11.48       9.82
C      -2.29      12.68       9.08
C      -4.60      15.37       7.83
C      -4.55      16.52       7.05
H       0.47       8.52      12.16
H      -1.75       9.62      11.72
H       0.01      11.69       8.38
H       2.20      10.66       8.89
H      -1.34      13.14       8.82
H      -5.50      15.18       8.41
H      -5.38      17.21       6.97
H      -7.05       8.37      12.37
H      -4.97       9.20      11.24
H      -6.98      12.90      10.36
H      -9.03      12.07      11.44
C      -9.38       9.62      12.61
H      -5.63      13.10       8.87
C      -8.17      10.16      11.95
H     -11.16      10.10      13.15
H      -1.49      14.23       7.09
H      -1.50      16.39       5.84
C      -5.87       9.81      11.28
C      -5.84      11.09      10.69
C      -6.99      11.89      10.76
C      -7.02       9.35      11.90
C      -4.60      11.60      10.05
C      -4.67      12.71       9.18
C      -2.37      14.87       7.12
C      -2.37      16.05       6.40
C      -8.15      11.44      11.38
C      -3.49      13.29       8.72
C      -3.49      14.51       7.88
N      -3.44      16.86       6.35
N      -3.44      10.97      10.33
