88

Cu       0.27       2.81      11.49
Cu       2.96       3.07      11.78
H      -0.82       1.39      18.15
H       0.93       7.19       2.10
H      -0.91       0.90      14.51
H      -0.22       4.94       8.42
H       4.38       3.50      18.07
H       5.45       2.01       5.85
H      -1.12       4.36      13.25
H       4.36       1.52      10.03
H       0.53       4.50       4.79
H       3.24       3.23      15.97
H       3.97       2.45       7.70
H       4.13      -0.95      11.81
H      -0.90       6.83      11.46
H       5.11       7.02       2.69
H      -0.34      -1.79      20.43
H       5.01      -2.12      21.13
C       1.36       5.47      11.68
C       3.21       2.91       7.07
C       2.33       2.65      17.82
C       3.45       3.00       5.70
C       1.16       2.16      18.44
C       2.45       3.57       4.88
C       1.21       6.89      11.69
C       2.02      -1.02      11.57
C       1.37       2.63      14.17
C       1.87       3.24       9.11
C       2.44       2.65       2.65
C       1.87       0.41      11.59
C       1.01       3.07      20.67
C       3.04       4.93       2.98
C       1.05       0.71      20.36
C       3.28       5.11       1.60
C       0.78       0.50      21.74
C       3.06       4.01       0.73
C       0.88       1.62      22.61
C       2.71       2.74       1.26
C       1.09       2.92      22.07
C       3.71       6.36       1.07
C       0.06       1.80      17.66
C       0.47      -0.79      22.26
C       1.38       4.00      22.95
C       2.60       1.62       0.39
C       4.37       7.35       1.97
C       0.23      -1.94      21.34
C       1.80       5.32      22.40
C       2.34       0.25       0.92
C      -1.05       1.32      15.50
C      -0.17       4.66       7.38
C       3.58       2.97      18.57
C       1.27       4.05       5.44
C       4.76       2.51       5.18
C      -2.14       4.16      13.02
C       5.38       1.72      10.25
C       0.10       1.89      16.26
C       1.05       3.99       6.82
C       1.25       2.44      15.64
C       2.03       3.39       7.65
C       2.35       2.82      16.44
N       2.65       3.72       3.46
N       1.08       1.98      19.86
N       4.99       3.27      12.01
N      -1.75       2.61      11.27
O       0.29       4.76      11.54
O       0.87       4.29      20.11
O       3.14       5.96       3.84
O       1.31      -0.32      19.53
O       6.09       0.09       1.96
O      -1.36       5.39      21.58
O       3.22      -2.11      22.70
O       2.86       5.39      21.49
O      -0.68       8.09       0.57
O       1.22       8.11       1.81
O      -2.16       1.27      15.99
O       2.95       1.12      11.73
O      -1.12       4.93       6.66
O       3.75       2.60      19.72
O       5.10       2.67       4.02
O       4.60       4.76      13.69
O      -1.37       1.12       9.58
O       2.56       4.98      11.79
O       0.68       0.90      11.48
O       0.29       2.62      13.42
O       2.94       3.26       9.85
O       2.56       2.84      13.67
O       0.67       3.04       9.60
O       1.92       1.53       3.19
