932

H       9.71      15.44      11.42
H      11.40      13.74      11.43
H      12.82      15.15      15.13
H      11.12      16.85      15.14
H      11.43      11.40      13.74
H      11.42       9.71      15.44
H      15.15      15.13      12.82
H      16.85      15.14      11.13
H      15.44      11.42       9.71
H      13.74      11.43      11.40
H      15.13      12.82      15.15
H      15.14      11.12      16.85
H      42.15      36.41      11.38
H      40.45      38.10      11.39
H      39.05      36.70      15.10
H      40.75      35.01      15.11
H      40.43      40.44      13.71
H      40.44      42.13      15.40
H      36.71      36.71      12.78
H      35.02      36.70      11.08
H      36.42      40.43       9.68
H      38.12      40.42      11.38
H      36.73      39.03      15.11
H      36.72      40.72      16.81
H      42.13      15.41      40.44
H      40.44      13.71      40.43
H      39.03      15.11      36.73
H      40.72      16.81      36.72
H      40.42      11.38      38.12
H      40.43       9.68      36.42
H      36.70      15.10      39.05
H      35.01      15.11      40.75
H      36.41      11.38      42.15
H      38.10      11.39      40.45
H      36.71      12.78      36.71
H      36.70      11.08      35.02
H       9.68      36.42      40.43
H      11.38      38.12      40.42
H      12.78      36.71      36.71
H      11.08      35.02      36.70
H      11.39      40.45      38.10
H      11.38      42.15      36.41
H      15.11      36.73      39.03
H      16.81      36.72      40.72
H      15.41      40.44      42.13
H      13.71      40.43      40.44
H      15.10      39.05      36.70
H      15.11      40.75      35.01
H      39.93      34.23      38.32
H      38.25      35.93      38.28
H      41.20      38.87      38.85
H      42.90      37.19      38.81
H      38.28      38.25      35.93
H      38.32      39.93      34.23
H      38.87      38.85      41.20
H      37.19      38.81      42.90
H      34.23      38.32      39.93
H      35.93      38.28      38.25
H      38.85      41.20      38.87
H      38.81      42.90      37.19
H      11.69      17.37      37.45
H      13.34      15.65      37.40
H      10.90      13.21      39.80
H       9.18      14.86      39.75
H      11.43      11.39      38.10
H      11.42       9.74      36.38
H      15.17      15.11      39.09
H      16.82      15.11      40.80
H      15.42      11.36      42.15
H      13.72      11.41      40.47
H      15.15      12.82      36.74
H      15.19      11.12      35.06
H       9.75      36.38      11.42
H      11.40      38.10      11.43
H      12.82      36.74      15.15
H      11.12      35.06      15.20
H      11.41      40.47      13.71
H      11.36      42.15      15.42
H      13.21      39.80      10.90
H      14.86      39.75       9.18
H      17.37      37.45      11.69
H      15.66      37.40      13.34
H      15.10      39.09      15.17
H      15.11      40.80      16.82
H      42.15      15.42      11.36
H      40.47      13.72      11.41
H      39.09      15.17      15.11
H      40.80      16.82      15.11
H      37.40      13.34      15.65
H      37.45      11.68      17.37
H      36.74      15.15      12.82
H      35.06      15.19      11.12
H      36.39      11.43       9.74
H      38.10      11.44      11.39
H      39.80      10.90      13.21
H      39.75       9.18      14.86
H      10.39      32.98      14.22
H       8.70      31.30      14.23
H       7.68      35.68      12.43
H       6.01      34.00      12.41
H       5.57      31.72      11.28
H       3.87      30.04      11.27
H       6.41      30.85      15.33
H       4.71      29.16      15.31
H       5.66      27.20      12.99
H       5.66      24.67      12.98
H       1.81      25.93      13.46
H      50.07      25.93      13.45
H       1.89      31.03      13.53
H      49.98      31.03      13.52
H      48.02      30.04      11.24
H      46.35      31.74      11.24
H      47.15      29.16      15.27
H      45.44      30.83      15.26
H      46.22      27.20      12.95
H      46.22      24.66      12.94
H       1.90      20.84      13.52
H      49.99      20.84      13.51
H      47.14      22.70      15.25
H      45.45      21.01      15.25
H      48.05      21.82      11.23
H      46.36      20.13      11.22
H      45.90      17.85      12.35
H      44.23      16.16      12.36
H      41.50      18.88      14.08
H      43.18      20.55      14.10
H       3.85      21.81      11.26
H       5.52      20.11      11.27
H       6.82      18.64      15.24
H       8.52      16.97      15.24
H       9.60      18.04      11.31
H       7.93      19.74      11.31
H       6.45      21.05      15.28
H       4.74      22.71      15.28
H      45.06      33.23      15.20
H      43.36      34.90      15.21
H      43.94      32.10      11.30
H      42.27      33.79      11.29
H      41.74      33.25      37.09
H      43.39      31.55      37.13
H      43.87      35.38      40.05
H      45.57      33.73      40.01
H      46.05      31.44      40.67
H      47.76      29.77      40.66
H      45.68      31.07      36.47
H      47.36      29.37      36.48
H      46.17      27.18      38.77
H      46.17      24.65      38.78
H      50.04      25.91      38.43
H       1.76      25.92      38.52
H      49.94      31.01      38.42
H       1.85      31.02      38.42
H       3.84      30.02      40.60
H       5.51      31.72      40.59
H       4.67      29.18      36.55
H       6.38      30.84      36.55
H       5.64      27.19      38.69
H       5.64      24.66      38.68
H      49.95      20.81      38.47
H       1.86      20.82      38.49
H       4.01      22.02      36.50
H       5.68      20.32      36.51
H       4.48      22.50      40.66
H       6.20      20.85      40.67
H       6.69      18.53      40.49
H       8.40      16.92      40.52
H       9.63      18.14      36.67
H       8.00      19.85      36.70
H      47.97      21.81      40.60
H      46.30      20.11      40.59
H      45.03      18.60      36.62
H      43.34      16.93      36.62
H      42.24      18.02      40.54
H      43.91      19.72      40.54
H      45.41      21.00      36.56
H      47.12      22.66      36.56
H       6.77      33.24      36.62
H       8.47      34.91      36.61
H       7.91      32.11      40.52
H       9.58      33.80      40.53
H      14.21      10.39      32.98
H      14.22       8.70      31.30
H      12.43       7.68      35.68
H      12.41       6.01      34.00
H      11.28       5.57      31.72
H      11.27       3.87      30.04
H      15.33       6.41      30.85
H      15.31       4.71      29.16
H      12.99       5.66      27.20
H      12.98       5.66      24.67
H      13.46       1.81      25.93
H      13.45      50.07      25.93
H      13.53       1.89      31.03
H      13.52      49.98      31.03
H      11.24      48.02      30.04
H      11.24      46.35      31.74
H      15.27      47.15      29.16
H      15.26      45.43      30.83
H      12.94      46.22      27.20
H      12.94      46.22      24.66
H      13.52       1.90      20.84
H      13.51      49.99      20.84
H      15.25      47.14      22.71
H      15.24      45.45      21.01
H      11.23      48.05      21.82
H      11.22      46.36      20.12
H      12.35      45.90      17.85
H      12.36      44.23      16.16
H      14.08      41.50      18.88
H      14.10      43.18      20.55
H      11.26       3.85      21.81
H      11.27       5.52      20.11
H      15.23       6.82      18.64
H      15.24       8.52      16.97
H      11.31       9.60      18.04
H      11.31       7.93      19.74
H      15.28       6.45      21.05
H      15.28       4.74      22.71
H      15.20      45.06      33.23
H      15.21      43.36      34.90
H      11.29      43.94      32.10
H      11.29      42.27      33.80
H      37.09      41.74      33.25
H      37.13      43.39      31.55
H      40.05      43.87      35.38
H      40.01      45.57      33.73
H      40.67      46.05      31.44
H      40.66      47.76      29.77
H      36.47      45.69      31.07
H      36.48      47.36      29.37
H      38.76      46.17      27.18
H      38.77      46.17      24.65
H      38.44      50.04      25.91
H      38.52       1.76      25.92
H      38.42      49.94      31.01
H      38.42       1.85      31.02
H      40.60       3.84      30.02
H      40.59       5.51      31.72
H      36.55       4.67      29.18
H      36.55       6.38      30.84
H      38.70       5.64      27.19
H      38.68       5.64      24.66
H      38.47      49.95      20.81
H      38.49       1.86      20.82
H      36.50       4.01      22.02
H      36.51       5.68      20.31
H      40.66       4.48      22.50
H      40.67       6.20      20.85
H      40.49       6.69      18.53
H      40.52       8.40      16.92
H      36.67       9.63      18.14
H      36.70       8.00      19.84
H      40.60      47.97      21.81
H      40.59      46.30      20.11
H      36.62      45.03      18.60
H      36.62      43.34      16.93
H      40.54      42.24      18.02
H      40.54      43.91      19.72
H      36.56      45.41      21.00
H      36.56      47.12      22.66
H      36.62       6.77      33.24
H      36.61       8.47      34.91
H      40.52       7.91      32.11
H      40.53       9.58      33.80
H      32.97      14.21      10.39
H      31.30      14.22       8.70
H      35.69      12.44       7.68
H      34.00      12.41       6.01
H      31.72      11.28       5.56
H      30.04      11.28       3.86
H      30.84      15.32       6.41
H      29.16      15.31       4.71
H      27.20      12.98       5.66
H      24.67      12.98       5.66
H      25.93      13.46       1.81
H      25.93      13.45      50.07
H      31.03      13.54       1.89
H      31.03      13.52      49.98
H      30.04      11.24      48.02
H      31.74      11.24      46.35
H      29.16      15.27      47.15
H      30.83      15.26      45.43
H      27.20      12.94      46.22
H      24.66      12.94      46.22
H      20.84      13.53       1.90
H      20.84      13.51      49.99
H      22.71      15.25      47.14
H      21.01      15.24      45.45
H      21.82      11.23      48.05
H      20.12      11.22      46.36
H      17.85      12.35      45.90
H      16.16      12.36      44.23
H      18.88      14.08      41.50
H      20.55      14.10      43.18
H      21.81      11.26       3.85
H      20.11      11.27       5.52
H      18.64      15.24       6.82
H      16.97      15.24       8.52
H      18.04      11.31       9.60
H      19.74      11.31       7.93
H      21.05      15.28       6.46
H      22.72      15.28       4.75
H      33.23      15.20      45.06
H      34.90      15.21      43.36
H      32.10      11.30      43.94
H      33.79      11.29      42.27
H      33.25      37.09      41.74
H      31.55      37.13      43.39
H      35.38      40.05      43.87
H      33.73      40.01      45.57
H      31.44      40.67      46.05
H      29.77      40.66      47.76
H      31.07      36.47      45.68
H      29.37      36.48      47.36
H      27.18      38.77      46.17
H      24.65      38.78      46.17
H      25.91      38.43      50.04
H      25.92      38.52       1.76
H      31.01      38.42      49.94
H      31.02      38.42       1.85
H      30.02      40.60       3.84
H      31.72      40.59       5.51
H      29.18      36.55       4.67
H      30.84      36.55       6.38
H      27.19      38.69       5.64
H      24.66      38.68       5.64
H      20.81      38.47      49.95
H      20.82      38.49       1.86
H      22.02      36.50       4.01
H      20.32      36.51       5.68
H      22.50      40.66       4.48
H      20.85      40.67       6.20
H      18.53      40.49       6.69
H      16.92      40.52       8.40
H      18.14      36.67       9.63
H      19.85      36.70       8.00
H      21.81      40.60      47.97
H      20.11      40.59      46.30
H      18.60      36.62      45.03
H      16.93      36.62      43.34
H      18.02      40.54      42.24
H      19.72      40.54      43.91
H      21.00      36.56      45.41
H      22.66      36.56      47.12
H      33.24      36.62       6.77
H      34.91      36.61       8.47
H      32.11      40.52       7.91
H      33.80      40.53       9.58
C      12.27      14.29      13.28
C      14.29      13.28      12.27
C      13.28      12.27      14.29
C      12.21      11.35      14.39
C      12.20      10.37      15.40
C      13.28      10.24      16.32
C      14.35      11.16      16.19
C      14.34      12.17      15.20
C      11.35      14.39      12.21
C      10.36      15.40      12.20
C      10.24      16.32      13.28
C      11.16      16.20      14.35
C      12.17      15.20      14.34
C      15.20      14.34      12.17
C      16.19      14.35      11.16
C      16.32      13.28      10.24
C      15.40      12.20      10.36
C      14.39      12.21      11.35
C      39.59      37.56      13.24
C      37.57      38.57      12.24
C      38.58      39.58      14.25
C      39.65      40.49      14.36
C      39.65      41.48      15.37
C      38.58      41.60      16.28
C      37.51      40.69      16.16
C      37.51      39.68      15.17
C      40.51      37.45      12.17
C      41.50      36.45      12.17
C      41.62      35.54      13.25
C      40.71      35.66      14.32
C      39.70      36.65      14.31
C      36.66      37.50      12.13
C      35.67      37.49      11.12
C      35.54      38.57      10.21
C      36.46      39.64      10.33
C      37.46      39.64      11.32
C      39.58      14.25      38.58
C      37.56      13.24      39.59
C      38.57      12.24      37.57
C      39.64      11.32      37.46
C      39.64      10.33      36.46
C      38.57      10.21      35.54
C      37.49      11.12      35.67
C      37.50      12.13      36.66
C      40.49      14.36      39.65
C      41.48      15.37      39.65
C      41.60      16.28      38.58
C      40.68      16.16      37.51
C      39.68      15.17      37.51
C      36.65      14.31      39.70
C      35.66      14.32      40.71
C      35.54      13.25      41.62
C      36.45      12.17      41.50
C      37.45      12.17      40.51
C      12.24      37.57      38.57
C      14.25      38.58      39.58
C      13.24      39.59      37.56
C      12.17      40.51      37.45
C      12.17      41.50      36.45
C      13.25      41.62      35.54
C      14.32      40.71      35.66
C      14.31      39.70      36.65
C      11.32      37.46      39.64
C      10.33      36.46      39.64
C      10.21      35.54      38.57
C      11.12      35.67      37.49
C      12.13      36.66      37.50
C      15.17      37.51      39.68
C      16.16      37.51      40.69
C      16.28      38.58      41.60
C      15.37      39.65      41.48
C      14.36      39.65      40.49
C      39.57      37.56      38.56
C      37.56      38.56      39.57
C      38.57      39.57      37.56
C      38.40      39.23      36.20
C      38.41      40.23      35.20
C      38.57      41.60      35.52
C      38.72      41.93      36.90
C      38.73      40.93      37.89
C      39.23      36.20      38.40
C      40.23      35.20      38.41
C      41.60      35.52      38.57
C      41.93      36.90      38.72
C      40.93      37.89      38.73
C      37.89      38.73      40.93
C      36.90      38.72      41.93
C      35.52      38.57      41.60
C      35.20      38.41      40.23
C      36.20      38.40      39.23
C      12.28      14.27      38.60
C      14.27      13.26      39.62
C      13.29      12.27      37.58
C      12.23      11.35      37.46
C      12.23      10.37      36.45
C      13.31      10.24      35.53
C      14.38      11.17      35.67
C      14.36      12.17      36.67
C      12.47      15.49      37.91
C      11.47      16.49      37.92
C      10.24      16.31      38.60
C      10.06      15.07      39.27
C      11.06      14.08      39.29
C      15.20      14.32      39.74
C      16.19      14.31      40.74
C      16.31      13.23      41.66
C      15.37      12.18      41.53
C      14.37      12.19      40.54
C      12.27      37.58      13.29
C      14.27      38.60      12.28
C      13.26      39.62      14.27
C      12.19      40.54      14.37
C      12.18      41.53      15.37
C      13.23      41.66      16.31
C      14.31      40.74      16.19
C      14.32      39.74      15.21
C      11.35      37.45      12.23
C      10.37      36.45      12.23
C      10.24      35.53      13.31
C      11.17      35.67      14.38
C      12.17      36.67      14.36
C      14.08      39.29      11.06
C      15.07      39.27      10.06
C      16.31      38.60      10.24
C      16.49      37.92      11.48
C      15.49      37.91      12.47
C      39.62      14.27      13.26
C      37.58      13.29      12.27
C      38.60      12.27      14.27
C      37.91      12.47      15.49
C      37.93      11.47      16.49
C      38.60      10.24      16.31
C      39.27      10.06      15.07
C      39.29      11.06      14.08
C      40.54      14.37      12.19
C      41.53      15.37      12.18
C      41.66      16.31      13.23
C      40.74      16.19      14.31
C      39.74      15.20      14.32
C      36.67      14.36      12.17
C      35.67      14.38      11.17
C      35.53      13.31      10.24
C      36.45      12.23      10.36
C      37.46      12.23      11.35
C       4.82      26.63      13.09
C       4.82      25.25      13.08
C       3.51      24.80      13.22
C       3.50      27.07      13.23
C       3.10      28.43      13.29
C       1.75      28.87      13.33
C      50.13      28.87      13.32
C      50.56      30.19      13.44
C       1.31      30.19      13.45
C      48.77      28.43      13.26
C      48.38      27.06      13.20
C      48.38      24.80      13.20
C      47.06      25.24      13.04
C      47.06      26.62      13.05
C      48.78      23.43      13.25
C      50.13      23.00      13.31
C       1.75      23.00      13.32
C       1.32      21.68      13.43
C      50.57      21.68      13.43
C       3.11      23.43      13.28
C       4.13      22.43      13.27
C       4.90      22.17      14.43
C       5.90      21.18      14.43
C       6.17      20.40      13.27
C       5.39      20.66      12.12
C       4.39      21.66      12.12
C       7.19      19.38      13.27
C       8.02      19.15      12.14
C       9.01      18.15      12.14
C       9.23      17.33      13.27
C       8.41      17.55      14.41
C       7.41      18.55      14.40
C      47.76      22.42      13.24
C      46.98      22.17      14.39
C      45.98      21.18      14.39
C      45.73      20.39      13.23
C      46.52      20.65      12.08
C      47.51      21.65      12.08
C      44.72      19.38      13.23
C      43.42      19.63      13.74
C      42.43      18.63      13.73
C      42.68      17.33      13.22
C      43.98      17.08      12.71
C      44.97      18.08      12.70
C      47.75      29.44      13.26
C      47.48      30.20      12.10
C      46.48      31.19      12.10
C      45.71      31.47      13.25
C      45.98      30.69      14.41
C      46.98      29.70      14.41
C      44.68      32.48      13.25
C      44.47      33.32      14.37
C      43.46      34.31      14.38
C      42.64      34.52      13.25
C      42.85      33.70      12.12
C      43.85      32.70      12.12
C       4.12      29.44      13.29
C       4.40      30.20      12.13
C       4.88      29.70      14.46
C       5.89      30.68      14.46
C       6.16      31.46      13.31
C       5.39      31.20      12.14
C       7.18      32.47      13.31
C       6.93      33.76      12.78
C       7.93      34.76      12.79
C       9.22      34.52      13.32
C       9.46      33.22      13.85
C       8.46      32.23      13.85
C      47.01      26.60      38.70
C      47.01      25.22      38.70
C      48.33      24.78      38.60
C      48.34      27.04      38.60
C      48.74      28.41      38.57
C      50.09      28.85      38.54
C       1.71      28.86      38.55
C       1.27      30.18      38.48
C      50.52      30.18      38.47
C       3.07      28.43      38.58
C       3.47      27.06      38.60
C       3.47      24.79      38.61
C       4.79      25.23      38.65
C       4.80      26.61      38.66
C       3.06      23.43      38.58
C       1.71      22.99      38.55
C      50.09      22.98      38.55
C      50.53      21.65      38.50
C       1.28      21.66      38.51
C      48.73      23.41      38.57
C      47.71      22.40      38.58
C      46.95      22.13      37.41
C      45.95      21.14      37.42
C      45.67      20.37      38.58
C      46.44      20.65      39.74
C      47.44      21.65      39.74
C      44.65      19.35      38.58
C      43.82      19.13      39.70
C      42.83      18.12      39.71
C      42.61      17.30      38.58
C      43.44      17.52      37.45
C      44.44      18.51      37.45
C       4.08      22.42      38.58
C       4.47      21.78      37.39
C       5.46      20.78      37.39
C       6.13      20.40      38.59
C       5.74      21.06      39.78
C       4.73      22.05      39.78
C       7.15      19.38      38.59
C       8.05      19.22      37.50
C       9.04      18.22      37.50
C       9.21      17.33      38.60
C       8.32      17.50      39.69
C       7.31      18.49      39.68
C       4.09      29.44      38.58
C       4.37      30.19      39.74
C       5.37      31.18      39.73
C       6.13      31.47      38.57
C       5.84      30.70      37.41
C       4.84      29.71      37.41
C       7.15      32.49      38.57
C       7.36      33.32      37.45
C       8.37      34.32      37.44
C       9.19      34.53      38.57
C       8.98      33.70      39.70
C       7.99      32.70      39.69
C      47.72      29.41      38.57
C      47.33      30.04      39.77
C      47.09      29.80      37.37
C      46.09      30.80      37.37
C      45.68      31.43      38.57
C      46.33      31.03      39.77
C      44.67      32.45      38.57
C      44.76      33.60      39.40
C      43.76      34.59      39.40
C      42.62      34.50      38.57
C      42.53      33.36      37.73
C      43.52      32.36      37.74
C      13.09       4.82      26.63
C      13.08       4.82      25.24
C      13.22       3.51      24.80
C      13.23       3.50      27.07
C      13.29       3.10      28.43
C      13.33       1.75      28.87
C      13.32      50.13      28.87
C      13.44      50.56      30.19
C      13.44       1.31      30.19
C      13.26      48.77      28.43
C      13.20      48.38      27.06
C      13.20      48.38      24.80
C      13.04      47.06      25.24
C      13.04      47.06      26.62
C      13.25      48.78      23.43
C      13.31      50.13      23.00
C      13.32       1.75      23.00
C      13.43       1.32      21.68
C      13.43      50.57      21.68
C      13.28       3.11      23.43
C      13.27       4.13      22.43
C      14.43       4.90      22.17
C      14.43       5.90      21.18
C      13.27       6.17      20.40
C      12.12       5.39      20.66
C      12.12       4.39      21.66
C      13.27       7.19      19.38
C      12.14       8.02      19.15
C      12.14       9.01      18.15
C      13.27       9.23      17.33
C      14.41       8.41      17.55
C      14.40       7.41      18.55
C      13.24      47.76      22.42
C      14.39      46.98      22.17
C      14.38      45.98      21.18
C      13.23      45.73      20.39
C      12.08      46.52      20.65
C      12.08      47.51      21.65
C      13.22      44.72      19.38
C      13.74      43.42      19.63
C      13.73      42.43      18.63
C      13.22      42.68      17.33
C      12.71      43.98      17.08
C      12.71      44.97      18.08
C      13.26      47.75      29.44
C      12.10      47.48      30.20
C      12.10      46.48      31.19
C      13.25      45.71      31.46
C      14.41      45.98      30.69
C      14.41      46.98      29.70
C      13.25      44.68      32.48
C      14.37      44.47      33.32
C      14.38      43.46      34.31
C      13.25      42.64      34.52
C      12.12      42.85      33.70
C      12.12      43.85      32.70
C      13.29       4.12      29.44
C      12.13       4.40      30.20
C      14.46       4.89      29.69
C      14.46       5.89      30.68
C      13.30       6.16      31.46
C      12.14       5.39      31.20
C      13.31       7.18      32.47
C      12.78       6.93      33.76
C      12.80       7.93      34.76
C      13.32       9.22      34.52
C      13.85       9.46      33.22
C      13.85       8.47      32.23
C      38.69      47.01      26.60
C      38.69      47.01      25.22
C      38.60      48.33      24.78
C      38.60      48.34      27.04
C      38.57      48.74      28.41
C      38.54      50.09      28.85
C      38.55       1.71      28.86
C      38.48       1.27      30.18
C      38.47      50.52      30.18
C      38.58       3.07      28.43
C      38.60       3.47      27.06
C      38.61       3.47      24.79
C      38.65       4.79      25.23
C      38.66       4.80      26.61
C      38.58       3.06      23.43
C      38.55       1.71      22.99
C      38.55      50.09      22.98
C      38.50      50.53      21.65
C      38.51       1.28      21.66
C      38.57      48.73      23.41
C      38.58      47.71      22.40
C      37.41      46.95      22.13
C      37.42      45.95      21.14
C      38.58      45.67      20.37
C      39.74      46.44      20.65
C      39.74      47.44      21.65
C      38.58      44.65      19.34
C      39.71      43.82      19.13
C      39.71      42.83      18.12
C      38.58      42.61      17.30
C      37.45      43.44      17.52
C      37.45      44.44      18.51
C      38.58       4.08      22.42
C      37.39       4.47      21.78
C      37.39       5.46      20.78
C      38.59       6.13      20.40
C      39.78       5.74      21.06
C      39.78       4.73      22.05
C      38.59       7.15      19.38
C      37.50       8.05      19.22
C      37.50       9.04      18.22
C      38.60       9.21      17.33
C      39.69       8.32      17.50
C      39.68       7.31      18.49
C      38.58       4.09      29.44
C      39.74       4.37      30.19
C      39.73       5.37      31.18
C      38.57       6.13      31.47
C      37.41       5.84      30.70
C      37.41       4.84      29.71
C      38.57       7.15      32.49
C      37.45       7.37      33.32
C      37.44       8.37      34.32
C      38.57       9.20      34.53
C      39.70       8.98      33.70
C      39.69       7.99      32.70
C      38.57      47.72      29.41
C      39.77      47.33      30.04
C      37.37      47.09      29.80
C      37.37      46.09      30.80
C      38.57      45.68      31.43
C      39.77      46.33      31.03
C      38.57      44.67      32.45
C      39.40      44.76      33.60
C      39.40      43.76      34.59
C      38.57      42.62      34.50
C      37.73      42.53      33.36
C      37.74      43.53      32.36
C      26.63      13.08       4.82
C      25.25      13.08       4.82
C      24.80      13.22       3.51
C      27.07      13.23       3.50
C      28.43      13.29       3.10
C      28.87      13.33       1.75
C      28.87      13.32      50.13
C      30.19      13.44      50.56
C      30.19      13.45       1.31
C      28.43      13.26      48.77
C      27.06      13.20      48.38
C      24.80      13.19      48.38
C      25.24      13.04      47.06
C      26.62      13.04      47.06
C      23.43      13.25      48.78
C      23.00      13.31      50.13
C      23.00      13.32       1.75
C      21.68      13.43       1.32
C      21.68      13.43      50.57
C      23.43      13.28       3.11
C      22.43      13.27       4.13
C      22.17      14.43       4.90
C      21.18      14.42       5.91
C      20.40      13.27       6.17
C      20.66      12.12       5.39
C      21.66      12.12       4.39
C      19.38      13.27       7.19
C      19.15      12.14       8.02
C      18.15      12.14       9.01
C      17.33      13.27       9.23
C      17.55      14.41       8.41
C      18.55      14.40       7.41
C      22.42      13.24      47.76
C      22.17      14.39      46.98
C      21.18      14.38      45.98
C      20.39      13.23      45.73
C      20.65      12.08      46.52
C      21.65      12.08      47.51
C      19.38      13.22      44.72
C      19.63      13.74      43.42
C      18.63      13.73      42.43
C      17.33      13.22      42.68
C      17.08      12.71      43.98
C      18.08      12.71      44.97
C      29.44      13.26      47.75
C      30.20      12.10      47.48
C      31.19      12.10      46.48
C      31.46      13.25      45.71
C      30.69      14.41      45.98
C      29.70      14.41      46.98
C      32.48      13.25      44.68
C      33.32      14.37      44.47
C      34.31      14.38      43.46
C      34.52      13.25      42.64
C      33.70      12.12      42.85
C      32.70      12.12      43.85
C      29.44      13.29       4.12
C      30.20      12.14       4.39
C      29.69      14.45       4.89
C      30.68      14.46       5.89
C      31.46      13.31       6.16
C      31.20      12.15       5.39
C      32.47      13.31       7.18
C      33.76      12.79       6.93
C      34.76      12.80       7.93
C      34.52      13.32       9.22
C      33.22      13.84       9.47
C      32.23      13.85       8.47
C      26.60      38.70      47.01
C      25.22      38.70      47.01
C      24.78      38.60      48.33
C      27.04      38.60      48.34
C      28.41      38.57      48.74
C      28.85      38.54      50.09
C      28.86      38.55       1.71
C      30.18      38.48       1.27
C      30.18      38.47      50.52
C      28.43      38.58       3.07
C      27.06      38.60       3.47
C      24.79      38.61       3.47
C      25.23      38.65       4.79
C      26.61      38.66       4.79
C      23.43      38.58       3.06
C      22.99      38.55       1.71
C      22.98      38.55      50.09
C      21.65      38.50      50.53
C      21.66      38.51       1.28
C      23.41      38.57      48.73
C      22.40      38.58      47.71
C      22.13      37.41      46.95
C      21.14      37.42      45.95
C      20.37      38.58      45.67
C      20.65      39.74      46.44
C      21.65      39.74      47.44
C      19.35      38.58      44.65
C      19.13      39.70      43.82
C      18.12      39.71      42.83
C      17.30      38.58      42.61
C      17.52      37.45      43.44
C      18.51      37.45      44.44
C      22.42      38.58       4.08
C      21.78      37.39       4.47
C      20.78      37.39       5.46
C      20.40      38.59       6.13
C      21.06      39.78       5.74
C      22.05      39.78       4.73
C      19.38      38.59       7.15
C      19.22      37.50       8.05
C      18.22      37.50       9.04
C      17.33      38.60       9.21
C      17.50      39.69       8.32
C      18.49      39.68       7.31
C      29.44      38.58       4.09
C      30.19      39.74       4.37
C      31.18      39.73       5.37
C      31.47      38.57       6.13
C      30.70      37.41       5.84
C      29.71      37.41       4.84
C      32.49      38.57       7.15
C      33.32      37.45       7.36
C      34.32      37.44       8.37
C      34.53      38.57       9.19
C      33.70      39.70       8.98
C      32.70      39.69       7.99
C      29.41      38.57      47.72
C      30.04      39.77      47.33
C      29.80      37.37      47.09
C      30.80      37.37      46.09
C      31.43      38.57      45.68
C      31.03      39.77      46.33
C      32.45      38.57      44.67
C      33.60      39.40      44.76
C      34.59      39.40      43.76
C      34.50      38.57      42.62
C      33.36      37.73      42.53
C      32.36      37.74      43.52
N      13.28      13.28      13.28
N      38.58      38.57      13.24
N      38.57      13.24      38.58
N      13.24      38.58      38.57
N      38.56      38.56      38.56
N      13.28      13.27      38.60
N      13.27      38.60      13.28
N      38.60      13.28      13.27
N       2.76      25.93      13.30
N       0.62      28.11      13.26
N      49.12      25.93      13.28
N       0.63      23.75      13.25
N      49.08      25.91      38.55
N       0.59      28.10      38.59
N       2.72      25.93      38.58
N       0.58      23.73      38.58
N      13.30       2.76      25.93
N      13.26       0.62      28.11
N      13.28      49.12      25.93
N      13.25       0.63      23.75
N      38.54      49.08      25.91
N      38.59       0.59      28.10
N      38.58       2.72      25.93
N      38.58       0.58      23.73
N      25.93      13.30       2.76
N      28.11      13.26       0.62
N      25.93      13.28      49.12
N      23.75      13.25       0.63
N      25.91      38.55      49.08
N      28.10      38.59       0.59
N      25.93      38.58       2.72
N      23.73      38.58       0.58
