16

V       4.67       8.96      19.66
V       1.18       9.27      19.75
O       1.55       8.36      18.01
O       3.88       7.35      20.65
O       5.12       9.86      21.40
O       3.85       8.20      17.97
O       5.08      10.72      18.71
O       1.58       7.50      20.70
O       2.77       9.94      19.95
O       7.39      10.88      18.77
O       7.42      10.02      21.44
O       6.22       8.29      19.46
C       2.70       6.90      20.97
C       2.67       8.03      17.44
C       6.21      11.30      18.42
C       6.23      10.29      21.93
