54

Mg       0.92       7.95       5.37
Mg       1.36      -0.46       7.86
Mg      -1.40       6.45       4.30
Mg       3.70       1.10       8.93
Mg       3.24       8.14       3.47
Mg      -1.01      -0.62       9.72
H      -1.24       4.29       6.97
H       3.53       3.21       6.24
H       3.38       6.89       0.31
H      -1.12       0.63      12.90
H       1.05      11.30       5.93
H       1.22      -3.79       7.27
C       2.93       5.55       5.19
C      -0.64       1.97       8.02
C       0.59       7.79       2.27
C       1.67      -0.27      10.94
C      -1.73       9.18       5.69
C       4.00      -1.67       7.51
C       1.98       4.67       5.93
C       0.31       2.84       7.28
C      -0.37       7.60       1.14
C       2.62      -0.08      12.07
C      -2.69      10.24       6.11
C       4.96      -2.72       7.10
C       0.60       5.00       6.13
C       1.69       2.50       7.08
C       5.22       7.25       1.33
C      -2.97       0.26      11.88
C       2.90      10.25       5.71
C      -0.63      -2.74       7.50
C      -0.19       4.06       6.81
C       2.48       3.44       6.40
C       4.42       7.15       0.18
C      -2.17       0.36      13.03
C       2.09      11.27       6.22
C       0.17      -3.76       6.98
O       2.51       6.70       4.79
O      -0.24       0.80       8.41
O       0.19       7.54       3.47
O       2.09      -0.02       9.74
O      -2.14       8.29       4.84
O       4.39      -0.76       8.35
O       4.12       5.16       4.97
O      -1.82       2.37       8.25
O       1.78       8.19       2.04
O       0.48      -0.67      11.15
O      -0.55       9.16       6.15
O       2.81      -1.67       7.06
O       0.02       6.15       5.72
O       2.27       1.35       7.50
O       4.66       7.02       2.54
O      -2.40       0.50      10.67
O       2.33       9.33       4.88
O      -0.07      -1.82       8.33
