11

O      13.36       0.40       1.71
Zn      12.61       0.00       0.00
H      13.32       1.37       1.85
O      11.86      -0.40      -1.71
N      14.28       0.87      -0.96
C      10.46      -0.58       2.21
C      10.31      -2.00       0.58
N      10.94      -0.87       0.96
C      14.76       0.58      -2.21
C      14.91       2.00      -0.58
H      11.90      -1.37      -1.85
