10

Zn      11.48       4.54       1.58
O      12.93       4.97       2.85
O       9.91       3.96       2.64
C      10.03       3.02       3.52
C      13.86       4.08       2.88
O      11.55       4.18      -0.38
N      10.85       6.49       1.25
C      10.60       7.45       2.19
C      10.69       7.11       0.07
C      11.64       2.96      -0.79
