616

C       5.65       6.07       9.39
C       6.81       5.28       9.32
C       6.81       4.08       8.59
C       5.64       3.64       7.93
C       4.49       4.47       7.96
C       4.49       5.67       8.70
C       5.52       2.88       5.46
C       4.34       2.81       4.68
C       4.33       3.23       3.34
C       5.50       3.76       2.75
C       6.64       3.97       3.56
C       6.64       3.57       4.90
C       6.93       1.28       7.26
C       4.34       1.25       7.37
C       4.09       0.13       6.53
C       3.02      41.88       6.77
C       2.18      42.09       7.87
C       2.45       0.55       8.77
C       3.54       1.40       8.52
C       7.22       0.83       8.57
C       8.32      42.56       8.82
C       9.12      42.10       7.75
C       8.81      42.51       6.44
C       7.72       0.77       6.19
C       5.66       6.07      34.18
C       4.50       5.28      34.24
C       4.50       4.08      34.97
C       5.67       3.64      35.64
C       6.82       4.48      35.61
C       6.82       5.67      34.87
C       5.79       2.88      38.11
C       6.97       2.81      38.89
C       6.98       3.23      40.23
C       5.81       3.76      40.82
C       4.67       3.97      40.01
C       4.67       3.56      38.67
C       4.38       1.28      36.31
C       6.97       1.25      36.20
C       7.22       0.13      37.04
C       8.32      41.88      36.80
C       9.17      42.10      35.69
C       8.86       0.55      34.80
C       7.77       1.40      35.04
C       4.09       0.83      35.00
C       3.03      42.56      34.75
C       2.23      42.10      35.81
C       2.53      42.51      37.13
C       3.59       0.77      37.38
C      17.12      32.18      34.18
C      18.26      32.55      34.91
C      18.27      33.74      35.65
C      17.14      34.61      35.64
C      15.99      34.20      34.93
C      15.98      33.00      34.20
C      17.27      35.37      38.11
C      16.16      34.68      38.66
C      16.16      34.28      40.01
C      17.30      34.50      40.82
C      18.46      35.03      40.23
C      18.45      35.46      38.89
C      18.46      36.99      36.19
C      15.87      36.98      36.31
C      15.07      37.47      37.38
C      13.99      38.33      37.14
C      13.69      38.76      35.82
C      14.51      38.32      34.76
C      15.59      37.46      35.01
C      19.29      36.80      35.05
C      20.38      37.65      34.80
C      20.66      38.72      35.68
C      19.81      38.96      36.77
C      18.71      38.12      37.01
C      17.15      32.18       9.39
C      16.01      32.55       8.65
C      16.01      33.74       7.92
C      17.13      34.61       7.93
C      18.29      34.20       8.64
C      18.30      33.01       9.38
C      17.00      35.37       5.46
C      18.11      34.68       4.91
C      18.12      34.28       3.56
C      16.98      34.50       2.75
C      15.81      35.03       3.34
C      15.82      35.46       4.68
C      15.81      36.99       7.37
C      18.40      36.98       7.25
C      19.20      37.47       6.19
C      20.28      38.33       6.43
C      20.58      38.76       7.74
C      19.76      38.32       8.81
C      18.68      37.46       8.56
C      14.99      36.80       8.51
C      13.89      37.65       8.76
C      13.61      38.72       7.89
C      14.46      38.96       6.80
C      15.56      38.12       6.55
C      17.13      27.37      31.25
C      18.27      26.54      31.24
C      18.26      25.34      30.50
C      17.11      24.94      29.79
C      15.98      25.80      29.78
C      15.99      27.00      30.51
C      16.98      24.18      27.32
C      15.80      24.09      26.53
C      15.79      24.52      25.19
C      16.96      25.06      24.61
C      18.09      25.28      25.42
C      18.09      24.87      26.77
C      18.39      22.57      29.11
C      15.79      22.56      29.23
C      15.54      21.43      28.41
C      14.45      20.58      28.65
C      13.60      20.82      29.75
C      13.88      21.89      30.62
C      14.97      22.74      30.37
C      18.67      22.09      30.41
C      19.76      21.23      30.66
C      20.57      20.81      29.59
C      20.27      21.23      28.28
C      19.18      22.08      28.04
C      17.13      27.37      12.32
C      15.98      26.55      12.33
C      15.99      25.35      13.07
C      17.14      24.94      13.78
C      18.27      25.80      13.79
C      18.27      26.99      13.06
C      17.26      24.18      16.25
C      18.44      24.09      17.03
C      18.45      24.51      18.37
C      17.28      25.05      18.96
C      16.15      25.28      18.15
C      16.15      24.87      16.80
C      15.85      22.57      14.46
C      18.45      22.56      14.34
C      18.70      21.43      15.16
C      19.79      20.58      14.92
C      20.64      20.82      13.82
C      20.36      21.89      12.95
C      19.27      22.74      13.19
C      15.57      22.10      13.15
C      14.48      21.24      12.90
C      13.67      20.81      13.97
C      13.97      21.23      15.28
C      15.06      22.09      15.52
C       5.62      10.87      12.34
C       6.84      11.36      12.87
C       6.85      12.55      13.62
C       5.67      13.32      13.78
C       4.45      12.79      13.28
C       4.43      11.58      12.57
C       5.79      14.05      16.25
C       4.67      13.40      16.82
C       4.67      12.99      18.16
C       5.82      13.17      18.96
C       7.00      13.67      18.36
C       6.99      14.09      17.02
C       6.96      15.72      14.36
C       4.37      15.66      14.47
C       3.62      16.20      15.53
C       2.54      17.06      15.29
C       2.20      17.42      13.97
C       2.97      16.93      12.90
C       4.05      16.06      13.15
C       7.71      15.63      13.16
C       8.79      16.50      12.92
C       9.12      17.50      13.85
C       8.31      17.67      15.00
C       7.23      16.80      15.24
C       5.69      10.87      31.22
C       4.48      11.36      30.69
C       4.47      12.55      29.95
C       5.65      13.32      29.79
C       6.86      12.79      30.29
C       6.89      11.58      30.99
C       5.52      14.05      27.32
C       6.64      13.40      26.75
C       6.64      13.00      25.40
C       5.49      13.17      24.61
C       4.31      13.67      25.21
C       4.32      14.09      26.55
C       4.36      15.72      29.21
C       6.94      15.66      29.10
C       7.69      16.21      28.03
C       8.77      17.07      28.28
C       9.11      17.43      29.60
C       8.35      16.93      30.67
C       7.27      16.06      30.42
C       3.61      15.63      30.41
C       2.52      16.50      30.65
C       2.19      17.50      29.72
C       3.00      17.67      28.57
C       4.08      16.80      28.33
C       5.71       3.80      42.24
C       5.59       2.57      42.94
C       5.72       2.57       0.63
C       5.60       3.80       1.33
C       5.57       5.05       0.63
C       5.75       5.05      42.93
C      17.09      34.45       1.33
C      17.21      35.69       0.63
C      17.07      35.69      42.93
C      17.19      34.45      42.23
C      17.23      33.21      42.93
C      17.05      33.21       0.63
C      17.17      25.10      20.38
C      17.06      23.86      21.08
C      17.19      23.86      22.49
C      17.07      25.10      23.19
C      17.03      26.35      22.49
C      17.21      26.34      21.07
C       5.59      13.13      23.19
C       5.70      14.37      22.49
C       5.60      14.37      21.07
C       5.72      13.13      20.38
C       5.75      11.89      21.08
C       5.56      11.89      22.49
C      21.67      39.64       7.97
C      21.53      41.01       7.61
C      22.70      41.82       7.51
C       1.00      41.31       8.02
C       1.10      40.00       8.56
C      22.92      39.11       8.41
C      12.60      39.64      35.60
C      12.75      41.01      35.95
C      11.58      41.82      36.05
C      10.35      41.32      35.54
C      10.24      40.00      35.01
C      11.35      39.11      35.15
C       1.14      41.21      35.58
C       1.30      39.83      35.94
C       0.14      39.01      36.04
C      21.84      39.50      35.52
C      21.73      40.81      34.98
C      22.82      41.72      35.13
C      10.20      41.21       7.98
C      10.04      39.83       7.63
C      11.20      39.01       7.53
C      12.43      39.50       8.05
C      12.55      40.81       8.59
C      11.45      41.72       8.44
C      10.20      18.32      29.83
C      10.03      19.70      29.50
C      11.18      20.53      29.40
C      12.42      20.04      29.90
C      12.55      18.72      30.43
C      11.46      17.81      30.27
C       1.11      18.32      13.74
C       1.28      19.69      14.07
C       0.13      20.52      14.17
C      21.82      20.03      13.67
C      21.70      18.71      13.14
C      22.79      17.81      13.30
C      12.56      19.94      13.75
C      12.71      18.56      14.09
C      11.53      17.76      14.19
C      10.30      18.28      13.70
C      10.19      19.61      13.19
C      11.31      20.48      13.32
C      21.68      19.94      29.81
C      21.54      18.56      29.47
C      22.71      17.75      29.38
C       1.01      18.28      29.87
C       1.11      19.60      30.38
C      22.93      20.48      30.24
C       5.61       9.67      11.60
C       5.67       9.73      10.18
C       5.80       8.52       9.44
C       5.65       7.28      10.13
C       5.48       7.21      11.55
C       5.57       8.42      12.30
C       5.70       9.66      31.96
C       5.65       9.73      33.39
C       5.52       8.52      34.13
C       5.66       7.28      33.43
C       5.83       7.21      32.02
C       5.74       8.42      31.26
C      17.14      28.57      31.99
C      16.64      28.56      33.33
C      16.66      29.78      34.08
C      17.11      30.97      33.44
C      17.60      30.98      32.10
C      17.59      29.77      31.35
C      17.13      28.58      11.58
C      17.62      28.56      10.24
C      17.61      29.78       9.49
C      17.16      30.97      10.13
C      16.67      30.99      11.47
C      16.68      29.77      12.22
H       2.83      41.12       6.10
H       4.68      42.55       5.70
H       1.86       0.71       9.58
H       3.72       2.14       9.20
H       6.66       1.13       9.37
H       8.50      42.25       9.78
H       9.36      42.16       5.65
H       7.51       1.00       5.22
H       7.50       3.68       5.43
H       7.50       4.32       3.14
H       3.49       3.06       2.78
H       3.48       2.40       5.05
H       3.64       4.22       7.46
H       7.69       3.56       8.54
H       7.67       5.58       9.80
H       3.64       6.24       8.72
H       8.52      41.12      37.46
H       6.66      42.55      37.87
H       9.46       0.72      33.98
H       7.59       2.15      34.37
H       4.65       1.13      34.20
H       2.84      42.25      33.79
H       1.98      42.16      37.92
H       3.80       1.00      38.35
H       3.81       3.68      38.14
H       3.81       4.32      40.43
H       7.82       3.06      40.79
H       7.83       2.40      38.51
H       7.67       4.22      36.11
H       3.62       3.56      35.03
H       3.64       5.58      33.77
H       7.67       6.24      34.85
H      13.43      38.66      37.93
H      15.27      37.23      38.35
H      14.33      38.64      33.80
H      16.17      37.17      34.21
H      19.11      36.04      34.39
H      20.99      37.46      34.00
H      20.00      39.73      37.42
H      18.13      38.32      37.83
H      19.31      35.88      38.53
H      19.29      35.22      40.80
H      15.29      33.92      40.42
H      15.30      34.56      38.12
H      15.12      34.75      34.95
H      19.11      33.98      36.17
H      19.09      31.95      34.93
H      15.13      32.73      33.69
H      20.84      38.66       5.64
H      19.00      37.23       5.22
H      19.95      38.64       9.76
H      18.11      37.17       9.36
H      15.16      36.04       9.18
H      13.29      37.46       9.57
H      14.28      39.73       6.15
H      16.14      38.32       5.73
H      14.97      35.88       5.04
H      14.98      35.22       2.77
H      18.98      33.92       3.15
H      18.98      34.56       5.44
H      19.15      34.75       8.62
H      15.16      33.97       7.39
H      15.18      31.95       8.64
H      19.14      32.74       9.88
H      14.26      19.81      28.00
H      16.12      21.23      27.59
H      13.27      22.08      31.43
H      15.14      23.50      31.04
H      18.10      22.37      31.22
H      19.94      20.92      31.61
H      20.83      20.90      27.49
H      18.98      22.32      27.07
H      18.95      25.00      27.30
H      18.96      25.64      25.01
H      14.97      24.33      24.62
H      14.95      23.67      26.90
H      15.14      25.57      29.25
H      19.13      24.80      30.48
H      19.12      26.81      31.75
H      15.16      27.60      30.50
H      19.98      19.81      15.57
H      18.12      21.23      15.98
H      20.97      22.07      12.14
H      19.10      23.49      12.53
H      16.14      22.38      12.35
H      14.29      20.93      11.95
H      13.41      20.91      16.08
H      15.26      22.32      16.50
H      15.29      25.00      16.26
H      15.29      25.64      18.56
H      19.28      24.32      18.95
H      19.30      23.66      16.67
H      19.11      25.56      14.32
H      15.12      24.81      13.09
H      15.14      26.82      11.82
H      19.10      27.59      13.07
H       2.01      17.44      16.08
H       3.86      16.01      16.51
H       2.75      17.20      11.93
H       4.59      15.73      12.34
H       7.50      14.93      12.45
H       9.35      16.37      12.07
H       8.53      18.39      15.69
H       6.69      16.94      16.09
H       7.85      14.48      16.64
H       7.84      13.82      18.92
H       3.80      12.66      18.58
H       3.79      13.31      16.30
H       3.56      13.26      13.44
H       7.74      12.85      14.02
H       7.71      10.84      12.74
H       3.53      11.22      12.22
H       9.30      17.44      27.48
H       7.45      16.01      27.06
H       8.56      17.20      31.63
H       6.73      15.73      31.23
H       3.82      14.93      31.12
H       1.96      16.37      31.50
H       2.78      18.39      27.88
H       4.62      16.94      27.47
H       3.46      14.48      26.93
H       3.47      13.82      24.65
H       7.51      12.67      24.98
H       7.52      13.32      27.27
H       7.76      13.26      30.13
H       3.57      12.85      29.54
H       3.60      10.84      30.82
H       7.78      11.22      31.35
H       6.25       0.59       0.83
H       6.16       1.37       2.25
H       5.16       1.37      41.31
H       5.06       0.59      42.74
H       5.18       6.23       2.28
H       5.14       7.05       0.87
H       6.14       6.22      41.29
H       6.18       7.04      42.70
H      16.54      37.66      42.74
H      16.62      36.88      41.32
H      17.65      36.88       2.25
H      17.74      37.66       0.83
H      17.61      32.03      41.29
H      17.66      31.21      42.70
H      16.66      32.03       2.28
H      16.62      31.21       0.87
H      17.72      21.89      22.68
H      17.63      22.67      24.11
H      16.61      22.67      19.46
H      16.52      21.89      20.88
H      16.65      27.52      24.14
H      16.61      28.34      22.73
H      17.60      27.52      19.43
H      17.64      28.34      20.84
H       5.08      16.35      20.86
H       5.21      15.57      19.44
H       6.09      15.57      24.12
H       6.22      16.35      22.70
H       6.14      10.71      19.43
H       6.17       9.89      20.84
H       5.16      10.71      24.13
H       5.14       9.89      22.73
H      21.86       0.72       6.37
H       0.48       1.01       6.78
H      19.47      41.01       7.51
H      20.13      42.49       7.32
H       2.99      40.21       9.36
H       2.29      38.79       9.72
H      22.34      37.14       8.53
H       1.01      37.36       8.77
H      12.39       0.72      37.19
H      10.84       1.01      36.79
H      14.80      41.01      36.06
H      14.14      42.49      36.25
H       8.36      40.22      34.21
H       9.06      38.79      33.84
H      11.93      37.14      35.03
H      10.34      37.36      34.79
H       0.98      37.53      37.19
H      22.36      37.22      36.78
H       3.36      39.85      36.04
H       2.71      38.37      36.24
H      19.86      40.57      34.16
H      20.54      42.00      33.79
H       0.43       1.10      35.01
H      21.77       0.86      34.76
H      10.36      37.52       6.38
H      11.91      37.22       6.80
H       7.98      39.85       7.52
H       8.63      38.37       7.32
H      14.42      40.57       9.41
H      13.74      42.00       9.78
H      10.88       1.10       8.55
H      12.47       0.86       8.81
H      10.33      22.02      28.27
H      11.88      22.33      28.67
H       7.97      19.68      29.41
H       8.61      21.16      29.24
H      14.41      18.96      31.25
H      13.74      17.52      31.60
H      10.92      15.82      30.33
H      12.51      16.07      30.59
H       0.97      22.02      15.30
H      22.36      22.32      14.90
H       3.34      19.68      14.16
H       2.70      21.16      14.33
H      19.83      18.96      12.31
H      20.51      17.52      11.97
H       0.39      15.82      13.23
H      21.74      16.07      12.98
H      12.36      16.23      15.29
H      10.81      15.96      14.89
H      14.76      18.55      14.17
H      14.10      17.07      14.35
H       8.29      19.42      12.42
H       9.00      20.84      12.06
H      11.91      22.45      13.20
H      10.31      22.25      12.98
H      21.88      16.22      28.28
H       0.51      15.95      28.69
H      19.48      18.54      29.38
H      20.15      17.07      29.20
H       3.01      19.41      31.15
H       2.31      20.84      31.51
H      22.32      22.45      30.36
H       0.99      22.25      30.58
H       6.39       9.34       7.65
H       6.24       7.72       7.59
H       5.51      11.78      10.00
H       5.43      11.00       8.58
H       5.09       5.19      11.67
H       4.89       5.97      13.08
H       5.67       9.19      14.21
H       5.79       7.57      14.16
H       4.92       9.34      35.92
H       5.07       7.72      35.97
H       5.81      11.78      33.56
H       5.88      11.00      34.99
H       6.23       5.19      31.90
H       6.42       5.97      30.49
H       5.64       9.19      29.35
H       5.52       7.57      29.40
H      16.18      28.99      35.93
H      16.33      30.61      35.94
H      16.09      26.57      33.37
H      15.61      27.39      34.69
H      18.13      32.98      32.05
H      18.61      32.17      30.73
H      17.94      28.93      29.49
H      18.10      30.54      29.50
H      18.12      29.00       7.65
H      17.97      30.61       7.63
H      18.15      26.57      10.19
H      18.64      27.38       8.88
H      16.13      32.98      11.52
H      15.65      32.17      12.83
H      16.33      28.94      14.08
H      16.18      30.55      14.07
N       5.97       1.39       1.30
N       5.34       1.39      42.27
N       5.34       6.21       1.32
N       5.97       6.21      42.25
N      16.81      36.86      42.27
N      17.47      36.86       1.30
N      17.45      32.04      42.25
N      16.82      32.04       1.32
N      17.45      22.69      23.16
N      16.79      22.69      20.41
N      16.81      27.51      23.18
N      17.44      27.51      20.39
N       5.36      15.54      20.40
N       5.94      15.55      23.16
N       5.98      10.72      20.39
N       5.34      10.72      23.18
N      22.62       0.45       6.90
N      20.28      41.53       7.38
N       2.25      39.60       9.20
N       0.14      37.77       8.66
N      11.62       0.45      36.67
N      13.99      41.53      36.19
N       9.10      39.60      34.37
N      11.21      37.77      34.91
N       0.21      37.79      36.66
N       2.55      39.32      36.18
N      20.58      41.19      34.32
N      22.64       0.46      34.89
N      11.13      37.79       6.91
N       8.79      39.32       7.39
N      13.69      41.19       9.25
N      11.60       0.46       8.68
N      11.10      21.76      28.79
N       8.77      20.21      29.28
N      13.69      18.34      31.08
N      11.63      16.47      30.48
N       0.20      21.75      14.78
N       2.54      20.21      14.29
N      20.55      18.33      12.49
N      22.62      16.46      13.09
N      11.59      16.52      14.78
N      13.95      18.03      14.30
N       9.04      20.02      12.57
N      11.18      21.83      13.09
N      22.65      16.51      28.79
N      20.29      18.03      29.26
N       2.27      20.01      31.00
N       0.13      21.83      30.47
N       6.09       8.54       8.10
N       5.59      10.94       9.53
N       5.20       6.02      12.16
N       5.62       8.39      13.68
N       5.22       8.54      35.47
N       5.72      10.94      34.04
N       6.11       6.02      31.40
N       5.69       8.39      29.89
N      16.31      29.80      35.41
N      16.12      27.41      33.86
N      18.12      32.14      31.56
N      17.95      29.74      30.02
N      17.97      29.80       8.16
N      18.14      27.40       9.71
N      16.15      32.14      12.00
N      16.32      29.75      13.55
Si       5.61       2.26       7.00
Si       5.70       2.26      36.56
Si      17.18      35.99      36.56
Si      17.09      35.99       7.01
Si      17.07      23.56      28.86
Si      17.17      23.56      14.70
Si       5.70      14.69      14.72
Si       5.61      14.69      28.85
