16

O       4.22       4.98       4.56
O       1.93       5.00       4.54
C       3.07       4.41       4.56
C       5.63       0.13       4.49
C       3.07       2.92       4.56
C       4.29       2.23       4.48
C       4.31       0.83       4.51
C       3.12       0.11       4.66
C       1.91       0.80       4.77
C       1.87       2.19       4.70
O       5.64      -1.13       4.23
O       6.65       0.86       4.75
H       5.21       2.79       4.41
H       3.14      -0.98       4.70
H       0.99       0.25       4.92
H       0.92       2.72       4.77
