16

O       6.47      13.74      15.99
O       4.19      15.73      22.48
O       5.24      13.72      22.26
O       7.07      12.55      17.84
H       6.20      13.41      19.95
H       4.93      15.60      16.48
H       3.45      17.01      17.91
H       3.45      16.68      20.38
C       4.75      14.81      21.79
C       6.46      13.51      17.26
C       4.84      15.04      20.32
C       5.63      14.21      19.51
C       5.66      14.42      18.12
C       4.89      15.45      17.55
C       4.08      16.24      18.36
C       4.07      16.06      19.74
