23

H       2.87       5.20      16.89
O      -0.44       5.67      19.12
H      -0.13       4.58      16.85
H       2.64       3.54      14.93
O       1.95       5.82      19.18
H      -0.68       8.40      13.35
H      -0.70       8.35      15.16
H       0.55       9.32      14.29
H       1.53       7.23      15.15
H       1.54       7.25      13.35
H      -0.56       5.89      13.32
H      -0.57       5.79      15.08
C       1.12       3.97      12.82
C       1.91       4.91      16.48
C       0.80       4.98      17.23
C       1.89       4.30      15.12
C       1.04       4.66      14.12
C       0.78       5.54      18.60
C       0.11       5.86      14.21
C       0.89       7.18      14.25
C      -0.05       8.39      14.26
O      -0.04       3.67      12.25
O       2.34       3.82      12.31
