43

O       5.55       8.03      20.19
O       3.16       8.17      20.26
H       4.54      14.74      18.40
H       4.76      15.25      14.02
H       4.57      13.36      10.20
H       4.17       9.78      13.21
H       4.39      10.92      21.39
H       4.52       9.25      17.54
H       4.59      15.03      16.07
H       4.11       9.49      15.55
H       4.36      11.16      11.24
H       5.36      15.24      22.82
H       3.57      15.25      22.82
H       4.46      14.41      24.15
H       3.56      12.76      22.54
H       5.35      12.75      22.54
H       5.35      14.24      20.51
H       3.59      14.26      20.51
C       4.74      15.75      11.44
C       4.44       9.99      19.49
C       4.67      14.43      12.07
C       4.45      12.41      19.80
C       4.42      11.10      20.33
C       4.47      10.15      18.11
C       4.45      11.43      17.52
C       4.47      12.57      18.38
C       4.41      11.60      16.10
C       4.51      12.91      15.53
C       4.55      14.01      16.41
C       4.52      13.85      17.79
C       4.27      10.50      15.22
C       4.28      10.66      13.84
C       4.43      11.92      13.28
C       4.54      13.07      14.11
C       4.45      12.04      11.88
C       4.57      13.29      11.28
C       4.66      14.33      13.47
C       4.38       8.64      20.04
C       4.46      13.63      20.74
C       4.46      13.34      22.26
C       4.46      14.64      23.06
O       5.98      16.20      11.17
O       3.56      16.34      11.24
