16

C       9.85       2.18       3.16
C       9.06       2.51       1.94
O      11.61      -1.10       2.96
N      10.66       2.42       5.21
H       9.01       3.60       1.80
H       8.04       2.13       2.03
H       9.52       2.04       1.07
C      11.15       1.24       4.76
C      12.02       0.36       5.60
C      10.65       1.05       3.45
C      10.88      -0.10       2.59
N       9.89       2.98       4.25
H      12.64       0.97       6.27
H      11.41      -0.32       6.20
H      12.66      -0.25       4.95
O      10.35      -0.19       1.41
