336

H       3.36      20.97       4.11
H      24.51      23.96       8.66
H      27.02      19.93       8.55
H       0.44      19.18       7.42
H      27.47      25.81       5.37
H       0.74      24.97       4.07
H       2.76      24.20       3.21
H      25.43      26.30       6.32
H      24.08      21.27       8.79
H       2.83      19.16       6.92
H      12.86       8.81       8.64
H       5.52      11.26       3.77
H       8.03      13.17       7.32
H       9.94      12.57       8.53
H       5.09      12.71       6.03
H      12.33      12.15       8.80
H      22.35      18.81      16.90
H      15.01      13.37      17.22
H      17.52      15.49      13.79
H      19.43      16.84      13.70
H      17.97      15.30      20.47
H      19.73      16.84      20.39
H      21.74      17.97      20.16
H      15.94      14.23      20.42
H      14.58      14.60      14.83
H      21.82      17.28      13.93
H      12.86      41.25      21.33
H       5.52      38.80      26.20
H       8.03      36.89      22.65
H       9.94      37.49      21.43
H       8.48      42.58      26.15
H      10.23      43.28      24.77
H      12.26      43.64      23.68
H       6.45      42.00      27.05
H       5.10      37.34      23.93
H      12.33      37.91      21.17
H       3.93      24.92       1.05
H       5.08      43.96      30.08
H       4.93      43.32      28.44
H       6.46      43.16      29.33
H      22.92      19.48      21.86
H      24.06      20.15      23.84
H      25.45      21.20      23.52
H      13.43      45.87      23.22
H      14.58      47.92      23.63
H      14.43      13.69      22.26
H      15.96      48.16      22.56
H      24.06      29.90       6.13
H      23.91      28.16       5.87
H      25.45      28.85       6.45
H      26.19      19.93      12.40
H      26.13      18.73      14.48
H      24.70      17.70      14.62
H      24.78      19.25      15.49
H       7.21      16.51       5.40
H       7.15      18.91       5.40
H       5.71      19.54       6.22
H       5.80      19.52       4.44
H      16.70      12.16      11.85
H      16.64      10.97       9.78
H      15.21      11.35       8.82
H      15.29       9.83       9.72
H      16.70      37.90      18.11
H      16.64      39.09      20.19
H      15.21      38.70      21.15
H      15.29      40.23      20.25
H       7.20      33.54      24.57
H       8.48       7.48       3.82
H      10.23       6.78       5.19
H      12.26       6.42       6.28
H       6.45       8.05       2.91
H       3.36      29.09      25.86
H      24.51      26.09      21.30
H      27.02      30.12      21.42
H       0.44      30.87      22.55
H      27.47      24.25      24.60
H       0.74      25.09      25.89
H       2.76      25.85      26.75
H      25.44      23.75      23.65
H      24.08      28.78      21.17
H       2.84      30.89      23.05
H      22.35      31.24      13.06
H      15.01      36.68      12.75
H      17.52      34.57      16.17
H      19.43      33.21      16.26
H      17.97      34.75       9.50
H      19.73      33.21       9.58
H      21.75      32.09       9.81
H      15.94      35.82       9.54
H      14.59      35.46      15.14
H      21.82      32.77      16.03
H      13.42       4.18       6.74
H      14.57      37.46       6.33
H      14.42      36.36       7.71
H      15.95      37.21       7.40
H      23.91      21.89      24.10
H       3.93      25.13      28.91
H       5.08      23.76      30.48
H       4.93       6.73       1.52
H       6.46       6.89       0.64
H      22.92      30.57       8.11
H      26.19      30.13      17.56
H      26.13      31.33      15.49
H      24.70      32.36      15.35
H      24.78      30.81      14.48
H       7.14      31.14      24.57
H       5.71      30.51      23.75
H       5.79      30.53      25.52
C       0.26      22.24       5.99
C       0.79      20.94       6.27
C       1.95      20.48       5.59
C       2.51      21.29       4.58
C       1.97      22.55       4.21
C       0.87      23.05       4.98
C       0.12      20.13       7.22
C       0.34      24.35       4.78
C      27.61      22.73       6.74
C      26.95      21.88       7.67
C      25.79      22.33       8.36
C      25.35      23.65       8.17
C      26.01      24.56       7.30
C      27.12      24.06       6.53
C      27.46      20.57       7.88
C      27.77      24.85       5.55
C       2.59      23.23       3.15
C      25.47      25.86       7.20
C      24.98      21.52       9.15
C       2.66      19.32       5.95
C       9.75       9.80       6.59
C      10.28      10.69       7.58
C      11.45      10.34       8.32
C      12.00       9.06       8.12
C       9.62      11.92       7.81
C       8.62      10.20       5.80
C       7.96      11.44       6.07
C       6.80      11.81       5.33
C       6.36      10.98       4.29
C       8.47      12.27       7.09
C       5.99      12.90       5.63
C      12.15      11.23       9.14
C      19.25      16.54      17.07
C      19.78      16.95      15.80
C      20.94      17.77      15.74
C      21.50      18.24      16.95
C      20.96      17.93      18.22
C      19.86      17.01      18.27
C      19.11      16.54      14.63
C      19.33      16.54      19.50
C      18.11      15.65      17.12
C      17.45      15.27      15.91
C      16.29      14.45      15.96
C      15.86      13.96      17.20
C      16.52      14.25      18.42
C      17.62      15.16      18.37
C      17.96      15.74      14.68
C      18.28      15.62      19.54
C      21.59      18.51      19.34
C      15.98      13.69      19.59
C      15.48      14.16      14.87
C      21.64      18.04      14.55
C       9.76      40.25      23.37
C      10.29      39.36      22.39
C      11.45      39.72      21.64
C      12.01      41.00      21.85
C      11.46      41.95      22.75
C      10.37      41.53      23.57
C       9.62      38.14      22.16
C       9.84      42.36      24.59
C       8.62      39.85      24.17
C       7.96      38.61      23.90
C       6.81      38.24      24.63
C       6.37      39.07      25.68
C       7.02      40.28      26.03
C       8.13      40.69      25.22
C       8.48      37.78      22.88
C       8.78      41.93      25.41
C      12.09      43.21      22.80
C       6.49      41.01      27.11
C       5.99      37.15      24.33
C      12.15      38.82      20.82
C       3.75      22.82       1.02
C       4.18      24.07       0.53
C       4.94      41.82      29.93
C       5.26      40.61      29.25
C       5.38      43.14      29.42
C      22.74      20.56      20.05
C      23.17      20.35      21.38
C      23.93      21.35      22.05
C      24.36      21.13      23.46
C      13.25      44.85      21.39
C      13.68      45.89      22.23
C      14.44      46.97      21.70
C      14.76      46.96      20.32
C      14.87      48.08      22.59
C      23.17      29.70       8.58
C      23.93      28.70       7.91
C      24.25      27.51       8.62
C      24.36      28.92       6.51
C      24.54      20.64      11.30
C      25.17      19.98      12.37
C      24.39      19.42      13.41
C      22.98      19.54      13.33
C      25.04      18.74      14.56
C       5.56      15.20       5.33
C       6.18      16.46       5.37
C       5.41      17.64       5.34
C       3.99      17.51       5.26
C       6.06      18.98       5.35
C      15.05      12.76      13.02
C      15.68      12.16      11.91
C      14.90      11.54      10.91
C      13.49      11.54      11.06
C      15.55      10.89       9.74
C       5.56      34.85      24.64
C      15.68      37.90      18.05
C      14.90      38.52      19.06
C      13.49      38.52      18.91
C      15.55      39.17      20.22
C      11.46       8.11       7.22
C       6.18      33.59      24.60
C      10.36       8.52       6.40
C       9.84       7.70       5.38
C       7.02       9.78       3.93
C       8.13       9.36       4.74
C       8.78       8.12       4.55
C      12.09       6.85       7.16
C       6.48       9.04       2.86
C       0.26      27.81      23.97
C       0.79      29.11      23.70
C       1.95      29.58      24.38
C       2.51      28.76      25.39
C       1.97      27.51      25.76
C       0.87      27.00      24.99
C       0.12      29.92      22.75
C       0.34      25.71      25.19
C      27.61      27.32      23.23
C      26.95      28.18      22.29
C      25.79      27.73      21.60
C      25.35      26.40      21.80
C      26.01      25.50      22.67
C      27.12      25.99      23.43
C      27.46      29.48      22.08
C      27.77      25.20      24.41
C       2.60      26.83      26.82
C      25.47      24.20      22.76
C      24.98      28.53      20.81
C       2.65      30.74      24.01
C      19.25      33.51      12.90
C      19.78      33.10      14.16
C      20.94      32.28      14.23
C      21.50      31.81      13.01
C      20.96      32.12      11.74
C      19.86      33.04      11.69
C      19.11      33.52      15.34
C      19.33      33.51      10.47
C      18.11      34.40      12.85
C      17.46      34.79      14.06
C      16.30      35.61      14.01
C      15.86      36.10      12.76
C      16.52      35.80      11.55
C      17.62      34.89      11.59
C      17.97      34.31      15.29
C      18.28      34.44      10.42
C      21.58      31.54      10.62
C      15.98      36.37      10.37
C      15.48      35.89      15.10
C      21.64      32.02      15.41
C      13.25       5.21       8.58
C      13.67      39.49       7.73
C      14.43      38.41       8.26
C      14.76      38.42       9.65
C      14.87      37.30       7.37
C      24.25      22.54      21.35
C       3.75      27.23      28.94
C       4.18      25.98      29.43
C       4.94       8.23       0.04
C       5.26       9.44       0.71
C       5.38       6.91       0.55
C      22.74      29.50       9.91
C      24.54      29.42      18.67
C      25.17      30.08      17.59
C      24.39      30.64      16.55
C      22.98      30.51      16.63
C      25.05      31.32      15.40
C       5.40      32.41      24.63
C       3.99      32.54      24.70
C       6.05      31.08      24.62
C      15.05      37.30      16.94
N       4.81      39.45      29.80
N       4.11      21.73       0.31
N       3.06      22.58       2.14
N       5.93      40.42      28.11
N      23.80      22.64      20.07
N      23.10      21.72      19.46
N      22.05      19.71      19.28
N      14.31      45.90      19.59
N      13.61      44.92      20.08
N      12.56      43.76      21.74
N      15.42      12.52      19.58
N      23.80      27.41       9.90
N      23.10      28.33      10.50
N      24.92      26.43       8.21
N      22.45      20.22      12.28
N      23.19      20.73      11.32
N      25.28      21.26      10.38
N      22.18      19.18      14.33
N       3.47      16.26       5.20
N       4.20      15.18       5.23
N       6.29      14.09       5.25
N       3.20      18.55       5.07
N      12.96      12.10      12.17
N      13.69      12.68      13.09
N      15.78      13.24      14.02
N      12.69      10.85      10.25
N       4.20      34.88      24.73
N       6.29      35.96      24.71
N      12.69      39.20      19.72
N       3.47      33.79      24.77
N      12.96      37.95      17.79
N      14.31      39.48      10.37
N      13.61      40.46       9.88
N      12.56       6.30       8.23
N      15.43      37.53      10.38
N      24.92      23.62      21.75
N       4.81      10.60       0.17
N       4.11      28.33      29.66
N       3.06      27.48      27.83
N       5.93       9.63       1.85
N      22.05      30.34      10.68
N      22.45      29.83      17.68
N      23.19      29.32      18.64
N      25.28      28.80      19.59
N      22.18      30.87      15.64
N       3.19      31.50      24.89
N      13.69      37.38      16.87
N      15.78      36.81      15.94
