112

Sm      11.58      11.16       0.00
Sm       7.29       8.04       7.14
Sm       6.76       2.02       0.06
Sm      17.44       9.72       7.09
H      18.39      12.17      10.94
H       8.41      10.37      10.25
H      21.66      12.94      13.64
H      21.64      16.15      12.24
H      10.61       6.57      10.52
H      15.48      15.51      11.21
H       8.89       3.72       7.77
H       5.85       4.75       9.19
H       6.22       5.70       3.32
H      16.14       7.36       3.95
H       3.03       4.84       0.54
H       3.20       1.63       2.09
H      14.11      11.42       3.86
H       9.41       2.49       3.18
H      15.98      14.19       6.59
H      18.93      13.00       5.07
H      16.27       6.89      10.71
H       8.53      10.87       3.59
C      19.71      10.52       9.25
C      20.26      11.19      10.46
C      19.93      12.63      12.39
C      19.08      13.54      13.20
C      21.27      12.45      12.76
C      16.64       4.96      11.59
C      15.49       5.05      12.54
C      17.44       3.81      11.58
C      19.43      12.02      11.24
C       7.75      11.00      10.83
C       8.23      11.65      11.97
C      11.72       4.78      12.23
C      10.93       4.48      10.99
C       9.70       5.26       9.05
C       9.12       6.35       8.23
C       9.46       3.94       8.67
C      18.00       5.94       9.83
C      18.28       7.06       8.88
C      18.84       4.81       9.85
C      10.43       5.54      10.21
C      15.10      16.34      10.62
C      14.36      16.09       9.46
C       4.79       7.30       5.00
C       4.31       6.61       3.77
C       4.72       5.19       1.85
C       5.61       4.29       1.06
C       3.39       5.34       1.44
C       8.18      12.82       2.72
C       9.35      12.71       1.79
C       7.38      13.97       2.74
C       5.18       5.82       3.01
C      16.83       6.76       3.37
C      16.39       6.12       2.21
C      13.08      13.27       2.14
C      13.87      13.51       3.39
C      15.09      12.68       5.31
C      15.65      11.56       6.11
C      15.38      14.00       5.70
C       6.79      11.82       4.44
C       6.53      10.67       5.37
C       5.95      12.94       4.43
C      14.33      12.44       4.16
C       9.76       1.65       3.77
C      10.51       1.87       4.92
C      16.91       6.01      10.71
C      18.54       3.76      10.72
C       7.89      11.75       3.58
C       6.27      14.00       3.58
N       9.64      11.47      12.37
N      14.09      14.70       9.06
N      14.98       6.29       1.79
N      10.81       3.26       5.32
N       9.96      15.74      10.72
N      14.86       2.03       3.58
O      19.58      17.16      13.16
O      18.49      10.75       8.95
O      13.03       9.30       0.05
O      14.89       6.16      12.68
O       6.62       9.76       8.57
O      17.96      13.97      12.75
O      10.35      10.76      11.65
O      10.01      12.03      13.42
O       9.60      14.78      11.42
O       5.55       7.03       8.26
O      11.84       6.00      12.58
O       8.58       6.07       7.10
O      17.40       7.96       8.72
O      16.63      16.98      12.87
O       9.08       7.55       8.68
O      14.52      13.79       9.79
O      13.44      14.53       8.01
O      10.99      15.78      10.04
O       5.42       0.62       1.32
O       6.03       7.26       5.29
O      11.68       8.47      14.23
O       9.80      11.55       1.53
O      17.77       7.91       5.71
O       6.75       3.95       1.52
O      14.24       6.97       2.51
O      14.64       5.75       0.72
O      15.20       2.97       2.84
O      19.21      10.57       5.88
O      12.74      12.08       1.86
O      16.34      11.83       7.17
O       7.48       9.86       5.61
O       8.38       1.11       1.42
O      15.53      10.35       5.72
O      10.43       4.17       4.57
O      11.41       3.42       6.40
O      13.85       2.02       4.31
