26

C       1.43       7.19       0.88
C       0.94       8.44       0.46
C       0.08       9.16       1.27
C       2.38       6.42       0.01
H      -0.21       7.18       3.88
H       1.36       5.79       2.53
H       1.23       8.84      -0.51
H      -0.30      10.14       0.97
H       2.46       5.38       0.35
H       2.00       6.38      -1.02
C       6.06       5.97      -2.90
C       5.18       6.74      -2.14
C       4.76       6.30      -0.88
C       5.25       5.04      -0.46
C       6.11       4.32      -1.27
C       3.80       7.06      -0.01
N      -0.36       8.71       2.47
H       6.40       6.30      -3.88
H       4.83       7.69      -2.53
H       4.96       4.64       0.51
N       6.55       4.77      -2.47
H       3.73       8.10      -0.35
H       4.19       7.11       1.02
H       6.49       3.34      -0.97
C       0.13       7.51       2.90
C       1.01       6.74       2.14
