26

H       3.30       7.18       3.88
H       1.73       5.79       5.22
H       1.87       8.84       8.26
H       3.39      10.14       6.78
H       0.64       5.38       7.40
H       1.10       6.38       8.77
C      -2.96       5.97      10.65
C      -2.08       6.74       9.89
C      -1.66       6.30       8.63
C      -2.15       5.04       8.21
C      -3.02       4.32       9.02
C      -0.71       7.06       7.76
H      -3.30       6.30      11.63
H      -1.73       7.69      10.28
H      -1.87       4.64       7.24
H      -3.39       3.34       8.72
H      -0.64       8.10       8.10
H      -1.10       7.11       6.73
N       3.45       8.71       5.28
N      -3.45       4.77      10.22
C       2.96       7.51       4.86
C       2.08       6.74       5.61
C       1.66       7.19       6.88
C       2.15       8.44       7.29
C       3.02       9.16       6.48
C       0.71       6.42       7.74
