26

H       5.98      13.04       3.88
H       7.55      14.43       5.22
H       7.42      11.38       8.26
H       5.89      10.09       6.78
H       8.65      14.84       7.40
H       8.19      13.85       8.77
C      12.24      14.25      10.65
C      11.37      13.49       9.89
C      10.95      13.93       8.63
C      11.44      15.18       8.21
C      12.30      15.90       9.02
C       9.99      13.16       7.76
H       6.40      13.92      11.63
H      11.02      12.53      10.28
H      11.15      15.58       7.24
N       5.83      11.52       5.28
H       9.92      12.12       8.10
H      10.38      13.12       6.73
H       6.49      16.88       8.72
N       6.55      15.45      10.22
C       6.32      12.71       4.86
C       7.20      13.48       5.61
C       7.62      13.04       6.88
C       7.13      11.78       7.29
C       6.27      11.07       6.48
C       8.57      13.80       7.74
