219

C      17.82      10.42      11.38
C      16.30      12.80       8.90
C      16.32      11.76       9.85
C      15.38      14.65       6.05
C      18.87       8.66      13.31
C      19.37       7.73      14.37
C      16.96       9.52      12.03
C      17.49       8.65      12.99
C      15.34      13.31       5.60
C      14.42      12.94       4.61
C      13.56      13.92       4.06
C      19.14       5.36      14.99
C       6.64      11.57       0.74
C       5.93      12.74       0.45
C       6.62      13.45      32.27
C       7.77      12.74      31.91
C       8.64      13.26      30.93
C       8.38      14.53      30.34
C       7.23      15.24      30.75
C       6.34      14.71      31.70
C       4.72      13.03       1.10
C       4.23      12.14       2.07
C       4.93      10.95       2.39
C       6.15      10.67       1.72
C       8.00      10.24      31.91
C       9.14       9.53      32.27
C       9.83      10.24       0.45
C       9.12      11.41       0.74
C      11.04       9.95       1.10
C      11.54      10.85       2.07
C      10.84      12.03       2.39
C       9.62      12.31       1.72
C       7.13       9.72      30.93
C       7.38       8.45      30.34
C       8.54       7.74      30.76
C       9.43       8.27      31.70
C       7.88      11.49      32.71
C      11.39      12.93       3.44
C       6.43       7.93      29.32
C       9.33      15.05      29.32
C       4.37      10.05       3.44
C      -3.43      12.53      11.67
C      -2.06      12.56      11.38
C      -1.78      11.60      10.41
C      -2.98      10.97      10.05
C      -2.96       9.95       9.07
C      -1.73       9.54       8.48
C      -0.54      10.18       8.90
C      -0.56      11.22       9.85
C      -1.20      13.46      12.03
C      -1.73      14.34      12.99
C      -3.11      14.32      13.31
C      -3.96      13.40      12.64
C      -5.25      12.01      10.05
C      -6.45      11.38      10.42
C      -4.80      10.46      11.67
C      -4.27       9.58      12.64
C      -5.27      13.03       9.07
C      -6.50      13.44       8.48
C      -4.11      11.49      10.85
C      -6.48      14.53       7.46
C      -1.75       8.45       7.46
C      -3.61      15.25      14.37
C       2.44      20.77      22.60
C       1.78      19.56      22.31
C       0.81      19.80      21.34
C      12.86       0.38      20.98
C      11.97       0.87      20.00
C      11.00       0.01      19.41
C      -1.04      19.44      19.83
C      -0.13      18.93      20.78
C       2.13      18.37      22.96
C       3.15      18.39      23.92
C       3.83      19.59      24.24
C      15.46       0.01      23.57
C      14.90       1.82      20.98
C      14.95       3.18      21.34
C      13.98       3.42      22.31
C      13.33       2.21      22.60
C      13.64       4.61      22.96
C      12.61       4.59      23.92
C      11.93       3.39      24.24
C      12.30       2.19      23.57
C      15.79       1.33      20.00
C      16.76       2.19      19.41
C      16.80       3.54      19.82
C      15.89       4.05      20.77
C      13.88       1.10      21.78
C      10.88       3.42      25.29
C      17.69       1.63      18.39
C      10.07       0.58      18.39
C       4.89      19.56      25.29
C       7.40       6.02      27.90
C       8.57       6.66      27.45
C       9.35       6.04      26.46
C       8.94       4.80      25.92
C      18.86       3.42      16.97
C      17.72       4.12      16.52
C      17.86       5.10      15.53
C       8.37      16.96      27.90
C       7.19      16.33      27.45
C       6.41      16.94      26.46
C       6.82      18.18      25.92
C       0.38       8.33       6.05
C       0.42       9.67       5.59
C       1.34      10.04       4.60
C       2.21       9.06       4.06
C      -3.10      19.56      16.98
C      -1.96      18.86      16.52
C      -2.10      17.88      15.53
C      -3.38      17.62      14.99
H      15.98      12.61       5.98
H      18.77       7.90      15.26
H      15.40      13.08       8.51
H      15.45      11.31      10.13
H      18.71       6.10      13.19
H       8.75       6.82      30.37
H      10.25       7.74      31.99
H      11.56       9.09       0.89
H      12.41      10.62       2.54
H       9.09      13.16       1.93
H       6.29      10.25      30.67
H       9.47      12.73      30.67
H       7.01      16.16      30.37
H       5.51      15.24      31.99
H       6.68       9.82       1.93
H       4.20      13.89       0.89
H       3.35      12.36       2.54
H      10.66      13.70       3.71
H      11.55      12.32       4.34
H       6.48       8.56      28.43
H       5.42       8.04      29.72
H       9.28      14.42      28.43
H      10.34      14.94      29.72
H       4.21      10.66       4.34
H       5.10       9.28       3.71
H      15.96       9.50      11.82
H      16.86       8.00      13.47
H      -3.27       9.61      12.86
H      -4.39      13.49       8.82
H      -3.84       9.50       8.82
H       0.37       9.91       8.51
H       0.32      11.67      10.13
H      -4.96      13.37      12.86
H      -0.20      13.48      11.82
H      -1.09      14.98      13.47
H      -3.59       7.98      14.64
H      -5.96      14.17       6.57
H      -5.87      15.35       7.87
H      -2.27       8.82       6.57
H      -2.36       7.64       7.87
H      -3.00      15.09      15.26
H      -4.64      15.00      14.64
H      17.49       4.19      19.44
H      15.94       5.03      21.06
H      14.12       5.49      22.74
H      12.37       5.46      24.40
H      11.83       1.31      23.79
H      15.74       0.34      19.74
H      12.01       1.86      19.74
H      -1.73      18.79      19.44
H      -0.18      17.95      21.06
H      15.93       0.89      23.78
H       1.64      17.49      22.74
H       3.39      17.52      24.40
H      10.58       2.40      25.56
H      11.32       3.86      26.19
H      17.11       1.36      17.50
H      18.09       0.69      18.79
H      10.64       0.85      17.50
H       9.66       1.51      18.79
H       4.44      19.12      26.19
H       5.18      20.58      25.56
H      10.21       6.49      26.12
H       8.86       7.55      27.84
H       9.79       4.81      24.12
H       6.54       5.87      29.73
H      14.39      11.98       4.27
H      13.14      13.18       2.26
H      -8.31      15.46       7.87
H      17.05       5.61      15.19
H      16.79       3.92      16.90
H      19.41       2.74      18.80
H       5.56      16.49      26.12
H       6.90      15.43      27.83
H       5.97      18.17      24.12
H       9.22      17.10      29.72
H       1.38      11.00       4.26
H      -0.21      10.37       5.98
H       2.63       9.80       2.26
H       0.08       7.52       7.87
H      -1.28      17.37      15.19
H      -1.03      19.06      16.91
H      -2.95      16.89      13.19
H      -3.65      20.24      18.80
N      14.51      15.52       5.47
N      13.66      15.19       4.53
N      20.19       4.63      15.46
N      19.37       6.30      13.95
N      20.05       3.73      16.40
N       7.79       4.26      26.39
N       7.07       4.83      27.32
N       9.64       4.14      24.88
N       6.52       6.50      28.91
N      12.63      13.65       3.03
N      -7.76      15.16       7.05
N      18.88       2.42      17.98
N       7.98      18.72      26.39
N       8.69      18.15      27.32
N       6.13      18.84      24.88
N       9.24      16.48      28.91
N       2.10       7.79       4.53
N       1.25       7.46       5.47
N       3.13       9.33       3.03
N      -0.47       7.82       7.05
N      -4.43      18.35      15.46
N      -4.29      19.25      16.40
N      -3.61      16.69      13.95
N      -3.12      20.56      17.98
