10

H      -2.77      11.09      15.59
H      -2.77       8.54      15.58
C      -3.70       9.12      15.58
H      -6.92      11.09      15.59
N      -4.85       8.42      15.58
N      -4.85      11.21      15.59
C      -6.00       9.12      15.58
C      -6.00      10.52      15.59
C      -3.70      10.52      15.59
H      -6.92       8.54      15.58
