38

H       7.46       3.48      25.10
H       7.11       5.67      25.83
H       7.41       7.12      27.84
H      11.66       7.07      27.25
H      11.38       5.61      25.25
C       9.78       4.90      23.04
C       7.81       2.93      23.05
C       6.76       1.87      23.05
C       9.58       4.13      21.88
C      12.03       4.65      18.39
H       8.36       2.58      21.00
C      12.94       4.79      17.21
C      10.41       4.33      20.67
H      11.94       6.76      18.80
H      10.53       2.22      20.25
H      10.49       6.49      20.81
C       8.57       3.16      21.89
C      10.82       3.21      19.92
C      10.82       5.61      20.25
C      11.62       3.37      18.80
C      11.62       5.77      19.12
O      10.88       8.44      29.16
O       8.62       8.47      29.41
O       6.33       1.46      24.18
O      13.30       5.97      16.89
O      13.30       3.71      16.63
O       6.37       1.45      21.90
H      10.55       5.67      23.04
H      11.97       2.51      18.23
C       9.02       4.70      24.20
C       9.55       7.18      27.67
C       9.22       5.53      25.40
C       9.70       8.09      28.84
C       8.04       3.69      24.20
C       8.11       5.95      26.15
C       8.27       6.76      27.27
C      10.67       6.75      26.93
C      10.50       5.94      25.81
