10

H      -6.08      -7.62      30.48
C      -4.10      -8.55      30.48
H      -3.53     -11.77      30.48
H      -3.53      -7.62      30.48
C      -5.50      -8.55      30.47
C      -5.50     -10.84      30.47
N      -3.41      -9.69      30.48
N      -6.20      -9.70      30.47
H      -6.08     -11.77      30.48
C      -4.10     -10.84      30.48
