38

C       9.54       5.73       8.84
C      12.02       5.21      12.32
C      10.38       5.53      10.04
C      12.93       5.07      13.49
C       8.53       6.70       8.83
C      10.80       6.64      10.79
C      11.61       6.49      11.91
C      11.60       4.09      11.58
C      10.79       4.25      10.46
H       8.33       7.28       9.72
H      10.51       7.64      10.46
H      11.95       7.35      12.47
C       9.74       4.96       7.68
H      10.46       3.37       9.90
C       6.71       7.99       7.67
C       7.77       6.93       7.68
C       8.98       5.16       6.52
C       8.00       6.17       6.52
C       9.49       2.68       3.04
C       9.17       4.32       5.32
H      11.92       3.10      11.91
C       8.06       3.90       4.57
H       7.42       6.37       5.63
C      10.45       3.91       4.90
H       7.06       4.19       4.89
C       8.21       3.10       3.45
H       7.35       2.75       2.88
C       9.64       1.77       1.87
C      10.61       3.10       3.77
H      11.60       2.78       3.45
H      11.33       4.24       5.45
O      13.29       3.88      13.81
O      13.30       6.15      14.07
O       6.30       8.40       8.81
O      10.82       1.41       1.55
O       8.56       1.40       1.30
O       6.31       8.40       6.53
H      10.51       4.19       7.68
