38

C       9.78      -4.77      23.03
C       7.81      -2.80      23.03
C       6.76      -1.75      23.04
H       8.36      -2.46      20.98
H      10.54      -2.11      20.23
H      11.98      -2.41      18.22
H      11.94      -6.65      18.81
H      10.48      -6.37      20.81
O      13.30      -5.87      16.89
O      13.30      -3.61      16.63
O       6.37      -1.31      21.90
H       7.47      -3.35      25.09
O      10.88      -8.30      29.17
O       8.62      -8.30      29.42
H      11.66      -6.93      27.26
H       7.12      -5.53      25.83
H       7.42      -6.97      27.84
O       6.32      -1.36      24.18
H      11.38      -5.47      25.25
C       9.57      -4.01      21.87
C      12.04      -4.54      18.39
C      10.41      -4.22      20.66
C      12.94      -4.69      17.21
C       8.57      -3.04      21.88
C      10.82      -3.10      19.91
C      11.63      -3.26      18.79
C      11.62      -5.66      19.13
C      10.82      -5.50      20.25
H      10.55      -5.54      23.03
C       9.02      -4.57      24.19
C       9.56      -7.03      27.67
C       9.23      -5.40      25.40
C       9.70      -7.94      28.84
C       8.05      -3.56      24.19
C       8.11      -5.81      26.15
C       8.28      -6.62      27.27
C      10.68      -6.61      26.93
C      10.51      -5.81      25.81
