10

C      -3.70       0.74      15.12
C      -3.70      -0.66      15.12
C      -6.00      -0.66      15.12
H      -2.77       1.32      15.13
N      -4.85       1.43      15.13
H      -6.92      -1.24      15.12
N      -4.85      -1.35      15.12
H      -6.92       1.32      15.13
C      -6.00       0.74      15.12
H      -2.77      -1.24      15.12
