15

N       7.45       9.17       1.09
O      11.18       8.10      -0.41
O      12.18       8.87       1.49
C       7.38       9.71       2.33
C       8.52       9.95       3.10
H       6.39       9.93       2.72
C       8.43      10.49       4.50
C       8.66       8.86       0.59
C       9.85       9.07       1.29
O       7.26      10.71       4.97
O       9.54      10.66       5.11
C      11.17       8.65       0.74
C       9.77       9.62       2.57
H       8.67       8.41      -0.41
H      10.68       9.78       3.16
