15

H      11.33       3.64       0.23
O      12.54       5.72       0.02
N      12.07       3.16       4.01
H      10.90       1.44       3.92
O       9.62       0.48       1.95
C      11.31       2.26       3.34
C      11.03       2.39       1.97
C      10.14       1.42       1.26
H      13.16       4.93       3.91
O       9.95       1.65       0.02
O      13.51       6.48       1.94
C      11.55       3.49       1.28
C      12.57       4.22       3.33
C      12.33       4.42       1.97
C      12.85       5.63       1.26
