20

H       1.14       8.30       8.99
H       0.31       7.79       4.49
C       2.86       7.65       4.81
C       3.38       8.09       7.87
C      -1.43       8.19       8.68
C      -1.95       8.30       5.63
C       1.80       7.92       5.82
C       2.04       8.08       7.19
C       0.97       8.21       8.08
C      -0.35       8.22       7.63
C      -0.60       8.12       6.24
C       0.48       7.93       5.39
O       4.09       8.01       5.11
O       2.60       7.10       3.79
O       4.27       8.95       7.68
O       3.55       7.19       8.77
O      -1.13       8.56       9.83
O      -2.54       7.71       8.32
O      -2.66       9.28       6.04
O      -2.29       7.52       4.71
