22

H       5.51       4.02       2.39
H       5.04       5.61       4.01
H       1.58       3.77       6.49
H       0.52       1.76       6.50
H       0.99       0.17       4.90
H       2.62       0.52       3.36
O       5.68       1.65       1.49
O       3.58       1.10       1.22
O       2.08       6.01       6.19
O       4.25       6.48       6.20
C       4.49       1.76       1.81
C       4.13       2.70       2.94
C       4.83       3.86       3.00
C       4.54       4.83       3.97
C       3.53       4.65       4.87
C       2.81       3.42       4.88
C       1.80       3.13       5.85
C       1.16       1.94       5.85
C       1.45       0.97       4.90
C       2.41       1.19       3.97
C       3.10       2.42       3.91
C       3.28       5.81       5.83
