22

H      18.84      10.88      12.51
H      18.37       9.29      10.89
H      14.91      11.13       8.41
H      13.85      13.14       8.40
H      14.32      14.73      10.00
H      15.95      14.38      11.54
O      19.01      13.25      13.41
O      16.91      13.80      13.68
O      15.41       8.89       8.71
O      17.58       8.42       8.70
C      17.82      13.14      13.09
C      17.46      12.20      11.96
C      18.16      11.04      11.90
C      17.87      10.07      10.92
C      16.86      10.24      10.03
C      16.14      11.48      10.02
C      15.13      11.77       9.05
C      14.49      12.96       9.05
C      14.78      13.93      10.00
C      15.74      13.71      10.93
C      16.43      12.48      10.99
C      16.61       9.09       9.07
