22

C      21.45      10.00      13.93
C      22.40      10.93      13.71
C      23.09      10.99      12.48
C      23.28       9.07       9.09
H      25.51      12.51      10.88
H      25.04      10.89       9.29
H      21.58       8.41      11.13
H      20.52       8.40      13.14
H      20.98      10.00      14.73
H      22.61      11.54      14.38
O      25.68      13.41      13.25
O      23.57      13.68      13.80
O      22.08       8.71       8.89
O      24.25       8.70       8.42
C      24.49      13.09      13.14
C      24.12      11.96      12.20
C      24.83      11.90      11.04
C      24.53      10.92      10.07
C      23.53      10.03      10.24
C      22.80      10.02      11.48
C      21.80       9.05      11.77
C      21.16       9.05      12.96
