22

H      15.51       9.84       3.43
H      15.04      11.46       1.84
H      11.58      13.94       3.68
H      10.52      13.95       5.69
H      10.98      12.35       7.28
H      12.62      10.81       6.93
O      15.68       8.94       5.80
O      13.58       8.67       6.35
O      12.08      13.64       1.44
O      14.25      13.65       0.97
C      14.49       9.26       5.69
C      14.12      10.39       4.75
C      14.83      10.45       3.59
C      14.53      11.42       2.62
C      13.53      12.32       2.80
C      12.80      12.33       4.03
C      11.80      13.30       4.32
C      11.16      13.30       5.51
C      11.45      12.35       6.48
C      12.41      11.42       6.26
C      13.10      11.36       5.03
C      13.28      13.28       1.64
