22

C       7.82       5.69       9.26
C       7.46       4.75      10.39
C       8.16       3.59      10.45
C       7.87       2.62      11.42
C       6.87       2.80      12.32
C       6.14       4.03      12.33
C       5.13       4.32      13.30
C       4.50       5.51      13.30
C       4.79       6.48      12.35
C       5.74       6.26      11.42
C       6.43       5.03      11.36
C       6.62       1.64      13.28
H       8.85       3.43       9.84
H       8.38       1.84      11.46
H       4.91       3.68      13.94
H       3.85       5.69      13.95
O       9.01       5.80       8.94
O       6.91       6.35       8.67
O       5.41       1.44      13.64
O       7.59       0.97      13.65
H       4.32       7.28      12.35
H       5.95       6.93      10.81
