22

H      12.18       2.39       4.02
H      11.71       4.01       5.61
H       8.25       6.49       3.77
H       7.19       6.50       1.76
H       7.65       4.90       0.17
H       9.28       3.36       0.52
O      12.35       1.49       1.65
O      10.24       1.22       1.10
O       8.75       6.19       6.01
O      10.92       6.20       6.48
C      11.16       1.81       1.76
C      10.79       2.94       2.70
C      11.50       3.00       3.86
C      11.20       3.97       4.83
C      10.20       4.87       4.65
C       9.47       4.88       3.42
C       8.47       5.85       3.13
C       7.83       5.85       1.94
C       8.12       4.90       0.97
C       9.07       3.97       1.19
C       9.76       3.91       2.42
C       9.95       5.83       5.81
