74

C       1.61      11.86       9.89
C       1.54      10.69      10.64
C       0.48       3.13      20.28
H       0.65      11.35      16.28
H       0.63       7.96      19.69
H       0.56      11.33      13.83
H       0.28       7.92      10.47
H       0.22       4.53      13.88
H       0.31       4.54      16.33
H      -1.55      11.08      12.02
C       1.30       4.53      11.42
C       1.22       3.38      10.64
H      -1.46      13.15      10.61
C       1.60       4.57      18.69
C       1.59       3.42      19.47
C       0.05       3.08       9.93
O      -0.49      14.66       8.93
H      -1.77       5.85      10.74
H      -1.93       3.74       9.41
O      -0.67       1.60      21.66
O      -0.18      14.69      21.26
H      -1.20      13.17      19.58
O      -1.18       1.52       8.65
H      -1.41       5.89      19.60
H      -1.46       3.78      20.95
H      -1.33      11.12      18.18
O       2.03      14.29      21.60
O       1.05       1.19       8.92
O       1.70      14.29       8.53
O       1.52       1.20      21.20
H       2.38       9.99      10.65
H       2.49      12.09       9.30
H       2.06       2.68      10.58
H       2.21       4.76      11.98
H       2.79      12.13      20.77
H       2.64      10.03      19.42
H       2.43       2.73      19.45
H       2.45       4.79      18.05
C       0.89      14.01      21.10
C       0.56      10.40      15.75
C       0.46       7.94      15.79
C       0.57       9.18      17.92
C       0.52       9.19      16.50
C       0.58       7.96      18.60
C       0.80      12.78      20.26
C      -0.43      11.34      18.75
C      -0.36      12.49      19.53
C       0.58      13.98       9.05
C       0.52      10.40      14.38
C       0.41       7.93      14.36
C       0.37       9.15      12.23
C       0.42       9.17      13.64
C       0.32       7.92      11.56
C       0.41      10.40      11.43
C      -0.03       1.84       9.11
C       0.31       5.47      14.41
C       0.31       6.70      12.24
C       0.35       6.69      13.66
C       0.52      12.75       9.88
C      -0.67      11.30      11.42
C      -0.62      12.46      10.64
C       0.44       1.89      21.11
C       0.36       5.48      15.78
C       0.53       6.73      17.93
C       0.47       6.70      16.52
C      -0.60       4.02      20.32
C      -0.57       5.19      19.57
C       0.52       5.48      18.73
C      -1.03       3.98       9.97
C      -0.93       5.15      10.72
C       0.23       5.44      11.46
C       1.89      11.89      20.21
C       1.80      10.72      19.45
C       0.65      10.43      18.71
