74

C       7.00       5.47      14.45
C       6.96       6.67      12.27
C       7.04       6.68      13.68
C       7.04      12.71       9.87
C       5.92      11.25      11.44
C       5.92      12.40      10.66
C       6.97       1.92      21.12
C       7.06       5.49      15.81
C       7.22       6.76      17.95
C       7.16       6.72      16.54
C       5.93       4.02      20.22
C       6.00       5.19      19.47
C       7.17       5.51      18.76
C       5.61       3.92      10.04
C       5.70       5.10      10.78
C       6.87       5.41      11.49
H       8.98      10.00      10.60
H       9.01      12.11       9.25
H       8.72       2.67      10.61
O       8.73      14.37      21.53
O       7.69       1.13       8.99
O       8.18      14.27       8.52
H       8.87       4.75      11.99
H       9.51      12.20      20.73
O       8.05       1.27      21.27
H       9.38      10.08      19.40
H       9.08       2.83      19.70
H       9.18       4.90      18.30
O       5.98      14.61       8.93
O       5.83       1.60      21.61
O       6.51      14.73      21.19
O       5.48       1.52       8.65
H       7.40      11.36      16.26
H       7.32       8.00      19.70
H       7.27      11.32      13.81
H       6.89       7.88      10.49
H       6.90       4.52      13.92
H       7.01       4.56      16.38
H       5.06      11.01      12.07
H       5.07      13.07      10.66
H       4.86       5.79      10.82
H       4.70       3.67       9.50
H       5.51      13.20      19.56
H       5.39      11.13      18.17
H       5.14       5.86      19.41
H       5.02       3.76      20.76
C       8.61      11.95      20.17
C       8.53      10.77      19.43
C       7.38      10.47      18.69
C       8.15      11.85       9.86
C       8.13      10.68      10.61
C       7.04       3.16      20.30
C       8.27       4.65      18.84
C       8.22       3.49      19.61
C       6.70       3.04       9.97
C       7.96       4.51      11.44
C       7.88       3.35      10.68
C       7.59      14.07      21.04
C       7.29      10.41      15.73
C       7.17       7.95      15.80
C       7.30       9.20      17.91
C       7.25       9.20      16.50
C       7.29       7.99      18.61
C       7.52      12.83      20.21
C       6.29      11.36      18.73
C       6.35      12.52      19.50
C       7.07      13.95       9.05
C       7.23      10.39      14.37
C       7.11       7.93      14.38
C       7.02       9.12      12.23
C       7.10       9.16      13.64
C       6.95       7.89      11.57
C       7.02      10.37      11.42
C       6.61       1.81       9.14
