10

C       7.22       7.41       7.75
C       7.29       6.40       8.78
C       7.16       8.26       6.87
C       7.36       5.55       9.65
O       8.63       4.18      11.12
O       5.88       9.63       5.40
O       6.26       4.02      11.10
O       8.25       9.79       5.42
C       7.42       4.52      10.68
C       7.09       9.29       5.84
