304

H       2.41       1.00      26.13
H      24.81       0.98      26.11
H       0.30       3.13      23.26
H       2.41      26.19       1.07
H       0.30      24.07       3.95
H      24.81      26.22       1.09
H      11.48      26.19      12.82
H      15.70      26.22      12.79
H      13.59      24.07       9.94
H      11.48       1.01      14.38
H      13.59       3.13      17.26
H      15.71       0.97      14.41
H       6.36      22.38       6.06
H       6.16      18.16       6.21
H       4.07      20.29       3.31
H       7.52      22.38       7.83
H       9.82      20.29      10.57
H       7.73      18.16       7.68
H       7.53       4.82      19.37
H       7.72       9.04      19.52
H       9.81       6.91      16.62
H       6.35       4.82      21.13
H       4.07       6.91      23.89
H       6.16       9.04      20.99
H      20.87       4.79      21.12
H      21.02       9.02      21.01
H      23.12       6.89      23.89
H      19.64       4.79      19.39
H      17.38       6.89      16.62
H      19.49       9.02      19.50
H      19.63      22.40       7.79
H      19.50      18.18       7.70
H      17.39      20.31      10.58
H      20.88      22.40       6.09
H      23.12      20.31       3.31
H      21.01      18.18       6.18
H      15.72      14.30      12.80
H      11.49      14.26      12.77
H      13.61      16.47       9.96
H      15.72      12.91      14.40
H      13.61      10.73      17.24
H      11.49      12.93      14.43
H      24.79      12.91      26.11
H       2.39      12.93      26.08
H       0.28      10.73      23.27
H      24.79      14.30       1.09
H       0.28      16.47       3.92
H       2.40      14.26       1.12
H      24.89      24.77       5.23
H      21.22      21.82       1.94
H      22.09      22.65       0.79
H      15.63       2.43      18.54
H      19.28       5.38      15.25
H      18.41       4.55      14.09
H       9.13      18.25      11.85
H      12.10      14.57       8.60
H      11.28      15.43       7.44
H       4.77       8.95      25.17
H       1.79      12.62      21.91
H       2.61      11.76      20.75
H      15.62      24.77       8.65
H      19.29      21.83      11.94
H      18.42      22.66      13.10
H      24.89       2.44      21.97
H      21.22       5.38      25.26
H      22.09       4.55      26.42
H       4.76      18.25       2.04
H       1.79      14.57       5.29
H       2.61      15.43       6.45
H       9.12       8.95      15.34
H      12.10      12.62      18.59
H      11.28      11.76      19.76
H       2.34       2.43      21.98
H       5.98       5.41      25.27
H       5.11       4.59      26.43
H      11.54      24.77       8.67
H       7.92      21.78      11.96
H       8.78      22.60      13.12
H      18.07       8.91      15.33
H      15.14      12.63      18.58
H      15.96      11.77      19.75
H      22.43      18.28       2.02
H      25.38      14.58       5.27
H      24.55      15.44       6.43
H      11.54       2.43      18.53
H       7.91       5.41      15.24
H       8.78       4.59      14.08
H       2.35      24.77       5.22
H       5.97      21.77       1.92
H       5.10      22.60       0.77
H      22.44       8.91      25.18
H      25.37      12.63      21.93
H      24.55      11.77      20.76
H      18.08      18.28      11.87
H      15.14      14.58       8.62
H      15.96      15.43       7.45
C       0.30       0.73      26.32
C       1.50       1.23      25.73
C       1.53       2.05      24.57
C       0.30       2.44      24.02
C      25.69       2.04      24.57
C      25.71       1.22      25.72
C       0.30      26.46       0.88
C       1.50      25.97       1.47
C       1.53      25.15       2.63
C       0.30      24.76       3.19
C      25.69      25.15       2.64
C      25.72      25.98       1.48
C      13.59      26.47      13.01
C      12.38      25.97      12.42
C      12.35      25.15      11.26
C      13.59      24.76      10.70
C      14.82      25.16      11.25
C      14.79      25.99      12.40
C      13.59       0.73      14.19
C      12.39       1.23      14.78
C      12.36       2.05      15.94
C      13.59       2.44      16.50
C      14.82       2.04      15.95
C      14.80       1.21      14.80
C       6.50      20.27       6.35
C       6.07      21.47       5.71
C       5.22      21.50       4.58
C       4.76      20.27       4.07
C       5.14      19.04       4.63
C       5.96      19.07       5.79
C       7.39      20.27       7.53
C       7.82      21.48       8.17
C       8.66      21.50       9.31
C       9.12      20.28       9.82
C       8.75      19.04       9.25
C       7.92      19.07       8.10
C       7.39       6.93      19.66
C       7.82       5.72      19.03
C       8.66       5.70      17.89
C       9.12       6.92      17.38
C       8.75       8.16      17.94
C       7.92       8.13      19.09
C       6.50       6.93      20.84
C       6.07       5.72      21.48
C       5.22       5.70      22.62
C       4.77       6.92      23.13
C       5.14       8.16      22.57
C       5.97       8.13      21.41
C      20.70       6.91      20.84
C      21.14       5.70      21.48
C      21.98       5.67      22.61
C      22.43       6.90      23.14
C      22.05       8.14      22.58
C      21.22       8.11      21.42
C      19.81       6.91      19.67
C      19.37       5.70      19.04
C      18.53       5.67      17.90
C      18.08       6.90      17.38
C      18.46       8.14      17.94
C      19.29       8.11      19.09
C      19.81      20.29       7.53
C      19.36      21.49       8.16
C      18.52      21.52       9.30
C      18.08      20.30       9.83
C      18.46      19.06       9.27
C      19.29      19.08       8.12
C      20.70      20.28       6.35
C      21.15      21.49       5.73
C      21.99      21.52       4.59
C      22.43      20.29       4.06
C      22.04      19.06       4.62
C      21.22      19.08       5.77
C      13.61      14.04      13.01
C      14.81      14.53      12.41
C      14.84      15.36      11.26
C      13.61      15.78      10.72
C      12.38      15.35      11.25
C      12.40      14.51      12.39
C      13.61      13.16      14.19
C      14.81      12.67      14.79
C      14.84      11.84      15.94
C      13.61      11.42      16.48
C      12.38      11.85      15.95
C      12.40      12.68      14.81
C       0.28      13.16      26.32
C      25.70      12.67      25.71
C      25.67      11.84      24.57
C       0.28      11.42      24.03
C       1.51      11.85      24.56
C       1.48      12.69      25.70
C       0.28      14.04       0.88
C      25.70      14.53       1.48
C      25.67      15.36       2.63
C       0.28      15.78       3.17
C       1.51      15.35       2.64
C       1.49      14.51       1.50
C      22.58      22.72       4.08
C      24.28      24.34       4.53
C      24.50      24.55       3.15
C      22.70      23.01       2.69
C      17.94       4.48      17.38
C      16.24       2.85      17.84
C      16.02       2.64      16.46
C      17.81       4.19      16.00
C      11.19      15.93      10.72
C       9.56      17.64      11.15
C       9.36      17.85       9.77
C      10.91      16.06       9.33
C       2.70      11.26      24.04
C       4.33       9.56      24.47
C       4.53       9.35      23.08
C       2.98      11.14      22.64
C      17.93      22.72       9.81
C      16.23      24.34       9.35
C      16.01      24.56      10.74
C      17.81      23.01      11.20
C      22.57       4.48      23.13
C      24.28       2.86      22.67
C      24.49       2.64      24.06
C      22.70       4.19      24.52
C       2.70      15.93       3.16
C       4.33      17.64       2.73
C       4.53      17.85       4.12
C       2.98      16.05       4.56
C      11.19      11.26      16.47
C       9.56       9.56      16.04
C       9.36       9.35      17.42
C      10.91      11.14      17.86
C       4.64       4.50      23.13
C       2.94       2.86      22.68
C       2.72       2.66      24.06
C       4.51       4.22      24.52
C       9.24      22.70       9.83
C      10.94      24.34       9.37
C      11.16      24.54      10.76
C       9.38      22.98      11.22
C      16.03      11.25      16.46
C      17.65       9.53      16.03
C      17.85       9.32      17.42
C      16.32      11.13      17.85
C      24.48      15.96       3.15
C      22.86      17.67       2.71
C      22.65      17.87       4.10
C      24.20      16.07       4.54
C       9.25       4.50      17.37
C      10.94       2.87      17.83
C      11.17       2.66      16.45
C       9.38       4.22      15.98
C       4.64      22.70       4.06
C       2.95      24.34       4.52
C       2.73      24.54       3.14
C       4.51      22.98       2.67
C      24.48      11.25      24.05
C      22.87       9.53      24.48
C      22.66       9.32      23.09
C      24.19      11.13      22.66
C      16.03      15.96      10.74
C      17.65      17.67      11.17
C      17.86      17.87       9.79
C      16.32      16.07       9.35
N      23.38      23.41       4.93
N      23.68      23.88       2.30
N      21.96      22.41       1.72
N      17.13       3.79      18.24
N      16.84       3.31      15.61
N      18.55       4.79      15.03
N      10.49      16.75      11.56
N      10.04      17.03       8.93
N      11.51      15.31       8.37
N       3.40      10.45      24.88
N       3.85      10.17      22.24
N       2.38      11.88      21.69
N      17.13      23.41       8.96
N      16.83      23.88      11.59
N      18.54      22.41      12.16
N      23.38       3.79      22.28
N      23.67       3.32      24.91
N      21.96       4.78      25.48
N       3.40      16.74       2.32
N       3.85      17.03       4.96
N       2.38      15.31       5.51
N      10.49      10.45      15.63
N      10.04      10.17      18.27
N      11.51      11.88      18.82
N       3.84       3.80      22.28
N       3.54       3.34      24.91
N       5.24       4.82      25.49
N      10.04      23.40       8.98
N      10.35      23.86      11.61
N       8.65      22.38      12.18
N      16.72      10.43      15.62
N      17.18      10.16      18.26
N      15.73      11.89      18.81
N      23.79      16.77       2.30
N      23.32      17.04       4.94
N      24.79      15.32       5.50
N      10.05       3.80      18.22
N      10.36       3.34      15.59
N       8.65       4.82      15.02
N       3.84      23.40       4.91
N       3.54      23.86       2.28
N       5.24      22.37       1.71
N      23.79      10.43      24.89
N      23.33      10.16      22.25
N      24.78      11.89      21.70
N      16.72      16.77      11.58
N      17.18      17.04       8.95
N      15.72      15.32       8.39
