928

C      38.67      39.75      39.16
C      37.78      40.58      39.89
C      36.50      40.96      39.38
C      36.13      40.44      38.11
C      37.02      39.65      37.35
C      38.29      39.34      37.86
C      39.90      39.29      39.71
C      40.88      40.14      40.31
C      42.19      39.65      40.62
C      42.48      38.28      40.36
C      41.49      37.41      39.87
C      40.22      37.92      39.57
C      41.74      36.03      39.64
C      43.22      40.51      41.11
C      35.58      41.76      40.12
C      36.69      39.30      36.02
C      27.46      25.29      25.45
C      26.57      24.47      24.73
C      25.28      24.10      25.23
C      24.91      24.61      26.50
C      25.81      25.39      27.27
C      27.08      25.70      26.76
C      28.70      25.75      24.91
C      29.67      24.90      24.31
C      30.98      25.38      24.00
C      31.28      26.75      24.27
C      30.29      27.63      24.76
C      29.02      27.11      25.06
C      30.55      29.00      25.01
C      32.01      24.52      23.51
C      24.36      23.30      24.49
C      25.48      25.75      28.59
C      33.07      39.38      25.08
C      32.17      40.10      24.25
C      30.89      39.59      23.88
C      30.52      38.31      24.39
C      31.42      37.56      25.18
C      32.69      38.07      25.48
C      34.30      39.93      25.54
C      35.27      40.53      24.69
C      36.58      40.84      25.18
C      36.87      40.58      26.55
C      35.88      40.09      27.42
C      34.61      39.78      26.90
C      36.13      39.85      28.79
C      37.61      41.33      24.32
C      29.96      40.33      23.08
C      31.10      36.23      25.53
C      21.86      25.66      39.53
C      20.96      24.94      40.36
C      19.68      25.44      40.74
C      19.31      26.72      40.22
C      20.21      27.48      39.43
C      21.48      26.97      39.12
C      23.09      25.11      39.08
C      24.07      24.52      39.93
C      25.38      24.21      39.45
C      25.67      24.47      38.08
C      24.68      24.95      37.20
C      23.41      25.26      37.71
C      24.94      25.19      35.83
C      26.41      23.72      40.31
C      18.76      24.70      41.53
C      19.88      28.80      39.07
C       6.37       3.75       3.91
C       7.26       2.92       3.19
C       8.54       2.54       3.69
C       8.91       3.05       4.97
C       8.02       3.84       5.73
C       6.75       4.16       5.22
C       5.14       4.21       3.36
C       4.16       3.36       2.77
C       2.85       3.85       2.45
C       2.56       5.22       2.72
C       3.56       6.09       3.20
C       4.82       5.58       3.51
C       3.30       7.47       3.44
C       1.82       2.99       1.97
C       9.46       1.74       2.95
C       8.35       4.20       7.05
C      17.58      18.20      17.63
C      18.48      19.03      18.35
C      19.76      19.40      17.85
C      20.13      18.88      16.57
C      19.23      18.10      15.81
C      17.95      17.80      16.32
C      16.34      17.75      18.17
C      15.37      18.60      18.77
C      14.05      18.13      19.08
C      13.76      16.76      18.81
C      14.75      15.88      18.32
C      16.02      16.39      18.02
C      14.48      14.51      18.08
C      13.03      18.99      19.56
C      20.69      20.19      18.59
C      19.55      17.75      14.48
C      11.98       4.12      18.00
C      12.88       3.40      18.82
C      14.16       3.90      19.20
C      14.52       5.18      18.68
C      13.62       5.94      17.90
C      12.35       5.43      17.59
C      10.75       3.57      17.54
C       9.77       2.97      18.39
C       8.46       2.65      17.90
C       8.17       2.92      16.53
C       9.17       3.40      15.65
C      10.43       3.72      16.17
C       8.91       3.64      14.28
C       7.43       2.16      18.76
C      15.08       3.16      19.99
C      13.94       7.27      17.55
C      23.18      17.84       3.54
C      24.08      18.56       2.71
C      25.36      18.06       2.34
C      25.73      16.78       2.86
C      24.84      16.02       3.65
C      23.56      16.53       3.96
C      21.95      18.39       4.00
C      20.97      18.98       3.15
C      19.66      19.29       3.63
C      19.37      19.03       5.00
C      20.36      18.55       5.88
C      21.63      18.24       5.37
C      20.10      18.31       7.25
C      18.63      19.77       2.77
C      26.28      18.79       1.54
C      25.16      14.70       4.00
C      32.49      43.06       0.62
C      22.25       0.81       1.23
C       1.08       1.09       0.61
C      12.54       0.45      42.45
C      22.79      42.70      41.84
C      43.95      42.42      42.46
C      32.50      22.00      20.91
C      11.05      21.18      20.30
C      12.29      20.89      20.92
C      12.54      21.52      22.16
C      33.99      22.34      22.77
C      32.75      22.62      22.15
C      26.90       0.84      21.77
C      27.86       1.44      20.94
C       6.69       0.82      20.67
C      18.15      42.66      21.31
C      17.19      42.05      22.13
C      38.35      42.68      22.41
C      26.90      21.12      42.84
C      16.65      20.51       0.58
C      17.90      21.13       0.86
C      18.15      22.37       0.23
C      28.39      22.99      42.49
C      27.15      22.36      42.21
C      23.88      21.49      21.32
C      22.91      20.92      20.48
C      21.52      21.18      20.66
C      21.16      22.01      21.75
C      22.14      22.58      22.59
C      23.52      22.31      22.41
C      12.67       0.45       0.23
C      11.70       1.01       1.07
C      10.31       0.77       0.87
C      32.37      43.05      42.84
C      33.34      42.49      42.00
C      34.73      42.73      42.20
C      18.28       0.42      21.27
C      17.30       1.26      20.70
C      15.92       1.09      20.97
C      26.77      43.07      21.80
C      27.74      42.23      22.37
C      29.13      42.41      22.09
C       7.07      21.53       0.25
C       6.10      20.69       0.82
C      27.12      20.87       0.56
C      37.97      21.97      42.82
C      38.95      22.81      42.26
C      17.92      22.63      42.52
C      35.74      41.42      31.83
C      36.22      41.38      33.15
C      36.53      40.14      33.76
C      36.36      38.95      33.03
C      35.89      38.99      31.71
C      35.61      40.22      31.09
C      24.55      23.62      32.79
C      25.03      23.67      31.47
C      25.34      24.90      30.85
C      25.17      26.09      31.59
C      24.70      26.05      32.91
C      24.42      24.81      33.53
C      30.19      32.03      23.44
C      30.68      33.35      23.48
C      30.99      33.96      24.71
C      30.80      33.23      25.91
C      30.33      31.91      25.87
C      30.04      31.29      24.63
C      41.34      32.99      41.20
C      19.41      31.67      41.16
C      19.72      31.06      39.93
C      19.55      31.79      38.74
C      19.09      33.12      38.78
C      41.22      33.74      40.01
C       9.30       2.08      11.25
C       8.82       2.12       9.93
C       8.51       3.35       9.31
C       8.68       4.55      10.05
C       9.15       4.51      11.37
C       9.44       3.27      11.99
C      20.49      19.88      10.29
C      20.02      19.84      11.61
C      19.70      18.60      12.23
C      19.87      17.41      11.49
C      20.33      17.45      10.16
C      20.62      18.69       9.54
C      14.84      11.47      19.65
C      14.36      10.15      19.61
C      14.05       9.53      18.38
C      14.23      10.27      17.18
C      14.70      11.59      17.22
C      14.99      12.21      18.46
C       3.70      10.50       1.88
C      25.64      11.83       1.92
C      25.32      12.44       3.15
C      25.49      11.70       4.34
C      25.95      10.38       4.30
C       3.83       9.76       3.07
C      27.47      29.85       5.99
C      26.57      30.68       6.71
C      25.30      31.06       6.21
C      24.92      30.54       4.93
C      25.81      29.75       4.17
C      27.09      29.44       4.68
C      28.70      29.39       6.54
C      29.68      30.24       7.13
C      30.99      29.75       7.45
C      31.28      28.38       7.18
C      30.28      27.51       6.70
C      29.01      28.02       6.39
C      30.54      26.13       6.46
C      32.01      30.61       7.93
C      24.37      31.86       6.94
C      25.49      29.40       2.85
C      27.46      15.39      35.35
C      26.57      14.57      34.63
C      25.28      14.20      35.13
C      24.91      14.71      36.40
C      25.81      15.49      37.17
C      27.08      15.80      36.66
C      28.70      15.85      34.81
C      29.67      15.00      34.21
C      30.98      15.48      33.90
C      31.28      16.85      34.17
C      30.29      17.73      34.66
C      29.02      17.21      34.96
C      30.55      19.10      34.91
C      32.01      14.62      33.41
C      24.36      13.41      34.39
C      25.48      15.85      38.49
C      33.07      29.48      34.98
C      32.17      30.20      34.15
C      30.89      29.69      33.78
C      30.52      28.41      34.29
C      31.42      27.66      35.08
C      32.69      28.17      35.38
C      34.30      30.03      35.43
C      35.27      30.63      34.59
C      36.58      30.94      35.07
C      36.87      30.68      36.45
C      35.88      30.19      37.32
C      34.61      29.88      36.80
C      36.13      29.95      38.69
C      37.61      31.43      34.22
C      29.96      30.43      32.98
C      31.10      26.33      35.43
C      10.65      15.76       6.36
C       9.76      15.04       7.19
C       8.48      15.54       7.56
C       8.11      16.82       7.04
C       9.00      17.58       6.25
C      10.27      17.07       5.94
C      11.89      15.21       5.90
C      12.86      14.62       6.75
C      14.17      14.31       6.27
C      14.47      14.57       4.90
C      13.47      15.05       4.02
C      12.20      15.36       4.53
C      13.73      15.29       2.65
C      15.20      13.82       7.13
C       7.55      14.80       8.36
C       8.68      18.90       5.90
C      17.57      36.93      13.81
C      18.47      36.10      13.09
C      19.74      35.72      13.59
C      20.12      36.23      14.87
C      19.23      37.02      15.63
C      17.95      37.34      15.12
C      16.34      37.39      13.26
C      15.36      36.54      12.67
C      14.05      37.03      12.35
C      13.76      38.40      12.62
C      14.76      39.27      13.10
C      16.03      38.75      13.41
C      14.51      40.64      13.34
C      13.02      36.17      11.87
C      20.67      34.92      12.85
C      19.56      37.37      16.95
C      17.58       8.30      27.53
C      18.48       9.13      28.25
C      19.76       9.50      27.75
C      20.13       8.98      26.47
C      19.23       8.20      25.71
C      17.95       7.90      26.22
C      16.34       7.85      28.07
C      15.37       8.70      28.67
C      14.05       8.23      28.98
C      13.76       6.86      28.71
C      14.75       5.98      28.22
C      16.02       6.49      27.92
C      14.48       4.61      27.98
C      13.03       9.09      29.46
C      20.69      10.29      28.49
C      19.55       7.85      24.38
C      23.18      37.30      27.90
C      24.08      36.57      28.72
C      25.36      37.08      29.09
C      25.73      38.36      28.58
C      24.83      39.12      27.80
C      23.56      38.61      27.49
C      21.95      36.74      27.44
C      20.98      36.15      28.29
C      19.67      35.83      27.80
C      19.38      36.09      26.43
C      20.37      36.58      25.55
C      21.64      36.89      26.07
C      20.12      36.82      24.18
C      18.64      35.34      28.66
C      26.29      36.34      29.89
C      25.15      40.45      27.45
C      23.18       7.94      13.44
C      24.08       8.66      12.61
C      25.36       8.16      12.24
C      25.73       6.88      12.76
C      24.84       6.12      13.55
C      23.56       6.63      13.86
C      21.95       8.49      13.90
C      20.97       9.08      13.05
C      19.66       9.39      13.53
C      19.37       9.13      14.90
C      20.36       8.65      15.78
C      21.63       8.34      15.26
C      20.10       8.41      17.15
C      18.63       9.87      12.67
C      26.28       8.90      11.44
C      25.16       4.80      13.90
C      32.49      33.16      10.52
C      33.45      33.99      11.13
C      12.29      34.26      10.51
C      12.54      33.62       9.28
C      11.58      32.80       8.67
C      32.75      32.52       9.29
C      32.50      12.10      30.81
C      11.05      11.28      30.19
C      12.29      10.99      30.82
C      12.54      11.62      32.06
C      33.99      12.44      32.67
C      32.75      12.72      32.05
C      38.10      34.01      31.67
C      39.07      34.62      30.84
C      17.90      34.00      30.57
C      18.15      32.76      31.21
C      17.19      32.15      32.03
C      38.35      32.78      32.31
C      15.69      11.22       9.66
C      16.65      10.61      10.48
C      17.90      11.23      10.76
C      18.15      12.47      10.13
C      17.18      13.09       9.31
C      15.94      12.46       9.03
C      23.88      11.59      31.22
C      22.91      11.02      30.38
C      21.52      11.28      30.56
C      21.16      12.11      31.65
C      22.14      12.68      32.49
C      23.52      12.41      32.31
C      23.88      33.63      10.13
C      22.90      34.19      10.97
C      21.52      33.95      10.77
C      21.16      33.15       9.66
C      22.14      32.59       8.82
C      23.52      32.83       9.02
C      29.48      33.60      31.17
C      28.51      34.44      30.60
C      27.13      34.26      30.87
C      26.77      33.17      31.70
C      27.74      32.34      32.27
C      29.13      32.51      31.99
C       7.07      11.63      10.15
C       6.10      10.79      10.72
C      27.12      10.97      10.46
C      26.76      12.07       9.64
C      27.74      12.91       9.08
C       6.71      12.73       9.34
C      35.74      31.52      41.73
C      36.22      31.48      43.05
C      25.33      30.24       0.59
C      36.36      29.05      42.93
C      35.89      29.09      41.61
C      35.61      30.32      40.99
C      24.55      13.72      42.69
C      25.03      13.77      41.37
C      25.34      15.00      40.75
C      25.17      16.19      41.49
C      24.70      16.15      42.81
C      13.21      14.92       0.36
C      30.19      22.13      33.34
C      30.68      23.45      33.38
C      30.99      24.06      34.61
C      30.80      23.33      35.81
C      30.33      22.01      35.77
C      30.04      21.39      34.53
C      30.14      23.10       8.03
C       8.20      21.77       7.99
C       8.52      21.16       6.75
C       8.35      21.90       5.56
C       7.89      23.22       5.60
C      30.01      23.84       6.84
C      20.51      35.26      21.15
C      20.03      35.30      19.83
C      19.71      36.53      19.21
C      19.89      37.72      19.95
C      20.35      37.68      21.27
C      20.64      36.45      21.89
C      20.49       9.98      20.19
C      20.02       9.94      21.51
C      19.70       8.70      22.12
C      19.87       7.51      21.39
C      20.33       7.55      20.06
C      20.62       8.79      19.44
C      14.84       1.57      29.55
C      14.36       0.25      29.51
C      25.26      42.71      28.28
C      14.23       0.37      27.08
C      14.70       1.69      27.12
C      14.99       2.31      28.36
C       3.70       0.60      11.78
C      25.64       1.93      11.82
C      25.32       2.54      13.05
C      25.49       1.81      14.24
C      25.95       0.48      14.20
C      15.03      42.94      12.97
H      38.06      40.85      40.83
H      39.51      37.28      39.19
H      39.79      39.34      36.69
H      40.95      41.85      39.50
H      34.30      40.00      37.90
H      21.85      37.72      39.99
H      26.84      24.20      23.78
H      28.31      27.76      25.44
H      28.58      25.68      27.93
H      29.74      23.18      25.11
H      23.08      25.07      26.71
H      33.06      27.30      24.65
H      32.44      41.04      23.98
H      33.90      39.41      27.54
H      34.20      36.91      25.48
H      35.35      39.72      22.97
H      28.69      38.10      24.84
H      38.65      40.21      27.11
H      21.24      24.00      40.64
H      22.70      25.63      37.07
H      22.98      28.14      39.13
H      24.14      25.32      41.65
H      17.48      26.93      39.77
H      27.45      24.85      37.52
H       6.98       2.65       2.24
H       5.53       6.22       3.89
H       5.25       4.15       6.39
H       4.08       1.64       3.57
H      10.74       3.50       5.17
H      23.20       5.78       3.10
H      18.20      19.30      19.30
H      16.73      15.74      17.65
H      16.46      17.82      15.15
H      15.31      20.32      17.97
H      21.95      18.42      16.36
H      11.98      16.21      18.43
H      12.60       2.45      19.09
H      11.14       4.09      15.53
H      10.84       6.59      17.60
H       9.70       3.77      20.10
H      16.35       5.40      18.23
H       6.40       3.29      15.97
H      23.80      19.50       2.44
H      22.34      17.87       6.01
H      22.07      15.36       3.95
H      20.91      18.17       1.43
H      27.56      16.57       3.31
H      17.59      18.65       5.55
H      13.41       0.63      41.95
H      22.04       1.15       2.17
H      31.62      42.87       1.13
H      23.00      42.35      40.91
H       2.92       1.89       0.73
H      42.12      41.61      42.35
H      13.41      21.32      22.67
H      10.85      20.84      19.35
H      31.63      22.19      20.40
H      34.19      22.68      23.72
H      14.13      20.08      20.81
H      30.91      23.43      22.26
H      19.02      42.15      21.12
H      27.66       2.38      20.60
H      26.03       1.34      21.95
H      17.39      41.12      22.48
H       8.53       0.93      19.87
H      36.52      42.57      23.21
H      19.01      22.88       0.43
H      16.45      19.57       0.92
H      26.03      20.61      42.65
H      28.59      23.93      42.15
H      19.73      21.02       1.67
H      25.31      22.48      41.40
H      20.18      22.25      21.91
H      23.23      20.25      19.78
H      24.86      21.25      21.16
H      21.82      23.24      23.29
H      19.64      20.66      20.23
H      25.41      22.83      22.85
H      31.38      42.83      42.66
H      12.02       1.66       1.79
H      13.66       0.67       0.41
H      33.02      41.84      41.28
H       8.43       1.31       1.29
H      36.61      42.19      41.78
H      25.79      42.92      22.05
H      17.62       1.96      20.04
H      19.26       0.58      21.02
H      27.42      41.53      23.03
H      14.03       1.52      20.46
H      31.01      41.97      22.61
H      36.99      22.13      42.58
H       6.42      19.98       1.48
H       8.05      21.37       0.50
H      38.62      23.52      41.59
H      25.24      20.44       1.08
H      19.80      23.06      41.99
H      36.62      38.05      33.43
H      36.34      42.26      33.65
H      35.56      42.32      31.39
H      35.81      38.11      31.18
H      37.62      40.91      35.26
H      34.58      40.91      29.51
H      25.43      27.00      31.19
H      25.15      22.79      30.96
H      24.37      22.72      33.23
H      24.61      26.93      33.44
H      26.42      24.14      29.35
H      23.39      24.12      35.11
H      31.05      33.64      26.81
H      30.81      33.85      22.60
H      30.01      31.59      22.53
H      30.23      31.39      26.74
H      32.08      35.46      23.96
H      29.01      29.72      23.93
H      19.82      31.39      37.83
H      19.53      31.16      42.04
H      41.16      33.43      42.11
H      19.01      33.65      37.90
H      20.80      29.55      40.70
H      40.19      35.32      40.70
H       8.42       5.45       9.64
H       8.70       1.24       9.42
H       9.48       1.17      11.69
H       9.24       5.38      11.89
H       7.42       2.58       7.81
H      10.47       2.59      13.56
H      19.61      16.51      11.89
H      19.90      20.72      12.12
H      20.68      20.79       9.85
H      20.42      16.58       9.64
H      18.63      19.37      13.73
H      21.65      19.38       7.97
H      13.98       9.86      16.28
H      14.24       9.64      20.49
H      15.03      11.90      20.56
H      14.80      12.11      16.35
H      12.97       8.03      19.13
H      16.02      13.78      19.16
H      25.23      12.11       5.25
H      25.52      12.33       1.04
H       3.88      10.07       0.97
H      26.04       9.85       5.18
H      24.24      13.94       2.38
H       4.85       8.18       2.38
H      26.85      30.95       7.65
H      28.30      27.38       6.02
H      28.58      29.44       3.51
H      29.75      31.95       6.32
H      23.09      30.10       4.73
H      10.64      27.82       6.81
H      26.84      14.30      33.68
H      28.31      17.86      35.34
H      28.58      15.78      37.83
H      29.74      13.28      35.00
H      23.08      15.17      36.61
H      33.06      17.40      34.55
H      32.44      31.14      33.88
H      33.90      29.51      37.44
H      34.20      27.01      35.38
H      35.35      29.82      32.87
H      28.69      28.20      34.74
H      38.65      30.31      37.01
H      10.03      14.10       7.46
H      11.50      15.73       3.89
H      11.77      18.24       5.95
H      12.93      15.42       8.47
H       6.28      17.03       6.59
H      16.24      14.95       4.34
H      18.19      35.82      12.14
H      16.74      39.40      13.78
H      16.46      37.33      16.29
H      15.29      34.82      13.47
H      21.95      36.67      15.07
H      34.40      38.96      12.99
H      18.20       9.40      29.19
H      16.73       5.84      27.55
H      16.46       7.92      25.05
H      15.31      10.42      27.87
H      21.95       8.52      26.26
H      11.98       6.31      28.33
H      23.81      35.63      28.99
H      22.35      37.27      25.43
H      22.05      39.77      27.50
H      20.90      36.95      30.00
H      27.56      38.58      28.13
H      17.60      36.46      25.87
H      23.80       9.60      12.34
H      22.34       7.97      15.91
H      22.07       5.46      13.85
H      20.91       8.27      11.33
H      27.56       6.67      13.21
H      17.59       8.75      15.45
H      13.41      33.81       8.77
H      33.25      34.33      12.07
H      31.62      32.97      11.03
H      11.79      32.45       7.73
H      14.12      35.07      10.63
H      30.91      31.72       9.17
H      13.41      11.42      32.57
H      10.85      10.94      29.25
H      31.63      12.29      30.30
H      34.19      12.78      33.62
H      14.13      10.18      30.71
H      30.91      13.53      32.16
H      19.02      32.25      31.02
H      38.86      35.56      30.50
H      37.23      34.52      31.85
H      17.39      31.22      32.38
H      19.74      34.11      29.77
H      36.52      32.67      33.11
H      19.01      12.98      10.32
H      16.45       9.67      10.82
H      14.82      10.71       9.47
H      17.39      14.03       8.97
H      19.73      11.12      11.57
H      14.11      12.58       8.22
H      20.18      12.35      31.81
H      23.23      10.35      29.68
H      24.86      11.35      31.06
H      21.82      13.34      33.19
H      19.64      10.76      30.13
H      25.41      12.94      32.74
H      20.18      32.93       9.48
H      23.22      34.83      11.69
H      24.86      33.85      10.31
H      21.82      31.94       8.10
H      19.63      34.49      11.19
H      25.41      32.29       8.61
H      25.79      33.02      31.95
H      28.83      35.14      29.93
H      30.47      33.75      30.92
H      27.42      31.63      32.93
H      25.24      34.70      30.36
H      31.01      32.07      32.51
H      25.78      12.23       9.40
H       6.42      10.08      11.38
H       8.05      11.47      10.40
H      27.42      13.62       8.42
H      25.24      10.54      10.98
H       8.60      13.16       8.82
H      25.42      28.15       0.26
H      25.14      32.36       0.48
H      35.56      32.42      41.29
H      35.81      28.21      41.08
H      26.42      31.01       2.09
H      34.58      31.01      39.41
H      25.43      17.10      41.08
H      25.15      12.89      40.86
H      13.16      12.82       0.05
H      13.41      17.03       0.26
H      26.42      14.24      39.25
H      12.18      14.22       1.93
H      31.05      23.74      36.71
H      30.81      23.95      32.50
H      30.01      21.69      32.43
H      30.23      21.49      36.64
H      32.08      25.56      33.86
H      29.01      19.82      33.83
H       8.61      21.49       4.66
H       8.32      21.27       8.87
H      29.96      23.53       8.93
H       7.80      23.75       4.73
H       9.60      19.66       7.52
H      28.99      25.42       7.53
H      19.62      38.63      19.54
H      19.90      34.42      19.32
H      20.69      34.35      21.59
H      20.44      38.56      21.79
H      18.63      35.76      17.71
H      21.67      35.76      23.46
H      19.61       6.61      21.79
H      19.90      10.82      22.02
H      20.68      10.89      19.75
H      20.42       6.68      19.54
H      18.63       9.47      23.63
H      21.65       9.48      17.87
H      25.18      43.04      26.18
H      25.44      42.82      30.39
H      15.03       2.00      30.46
H      14.80       2.21      26.25
H      24.17      41.21      29.03
H      16.02       3.88      29.06
H      25.23       2.21      15.15
H      25.52       2.43      10.94
H       3.88       0.17      10.87
H      37.24      43.03      15.08
H      24.24       4.04      12.28
H      16.06      41.36      12.27
N       2.03       1.93       1.13
N      43.01      41.57      41.94
N      13.24      20.04      20.40
N      31.80      23.47      22.67
N       7.65       1.34      19.82
N      37.40      42.16      23.25
N      18.85      20.61       1.71
N      26.20      22.88      41.36
N      20.54      20.66      19.86
N      24.51      22.84      23.21
N       9.32       1.29       1.67
N      35.72      42.21      41.40
N      14.93       1.89      20.45
N      30.11      41.61      22.62
N      26.14      20.07       1.08
N      18.91      23.43      42.00
N      37.05      40.15      35.03
N      35.29      40.29      29.76
N      25.85      24.90      29.59
N      24.10      24.75      34.85
N      31.50      35.23      24.71
N      29.71      29.97      24.57
N      20.23      29.79      39.94
N      40.90      35.06      40.08
N       7.99       3.34       8.05
N       9.76       3.21      13.31
N      19.19      18.61      13.49
N      20.94      18.76       8.22
N      13.54       8.27      18.38
N      15.31      13.53      18.53
N      24.81      13.71       3.14
N       4.15       8.44       3.00
N      13.24      35.11      11.03
N      31.80      31.67       8.77
N      13.24      10.15      30.30
N      31.80      13.57      32.57
N      18.85      34.51      29.72
N      37.40      32.26      33.15
N      18.85      10.71      11.61
N      14.99      12.99       8.19
N      20.54      10.76      29.76
N      24.51      12.94      33.11
N      20.53      34.47      11.57
N      24.51      32.31       8.23
N      26.14      35.06      30.35
N      30.11      31.71      32.52
N      26.14      10.17      10.98
N       7.70      13.53       8.82
N      25.85      30.25       1.85
N      35.29      30.39      39.66
N      25.85      15.00      39.49
N      12.89      14.85       1.68
N      31.50      25.33      34.61
N      29.71      20.07      34.46
N       9.03      19.89       6.76
N      29.69      25.16       6.90
N      19.20      36.52      17.95
N      20.96      36.38      23.21
N      19.19       8.71      23.39
N      20.94       8.86      18.12
N      24.75      41.45      28.28
N      15.31       3.63      28.43
N      24.81       3.81      13.04
N      15.35      41.62      12.90
O      34.90      40.69      37.55
O      21.25      37.71      40.77
O      39.16      38.67      37.04
O      40.62      41.48      40.35
O      20.48      35.71      38.99
O      22.10      40.12      40.93
O      35.67      38.42      35.87
O      34.53      42.29      39.45
O      23.69      24.38      27.06
O      32.46      27.32      23.87
O      27.96      26.36      27.58
O      29.41      23.56      24.26
O      31.69      29.31      25.67
O      33.30      24.91      23.70
O      24.46      26.62      28.76
O      23.29      22.80      25.15
O      29.30      37.75      24.15
O      38.05      40.99      27.11
O      33.57      37.25      26.15
O      35.02      40.57      23.35
O      37.28      39.20      29.11
O      38.90      41.15      24.71
O      30.06      36.06      26.39
O      28.89      39.67      22.58
O      18.09      27.28      40.46
O      26.85      24.07      37.51
O      22.35      27.79      38.46
O      23.81      24.48      41.27
O      26.08      25.85      35.51
O      27.70      23.91      39.92
O      18.86      28.96      38.20
O      17.69      25.37      42.04
O      10.14       2.81       5.53
O      23.79       5.79       2.31
O       5.88       4.83       6.04
O       4.41       2.02       2.73
O      24.57       7.79       4.10
O      22.94       3.38       2.15
O       9.37       5.07       7.21
O      10.51       1.21       3.63
O      21.35      19.11      16.01
O      12.58      16.20      19.21
O      17.08      17.14      15.50
O      15.64      19.94      18.81
O      13.34      14.20      17.42
O      11.74      18.61      19.37
O      20.57      16.87      14.32
O      21.75      20.69      17.92
O      15.74       5.75      18.93
O       7.00       2.51      15.96
O      11.47       6.25      16.93
O      10.03       2.93      19.73
O       7.76       4.29      13.96
O       6.15       2.35      18.37
O      14.98       7.44      16.69
O      16.16       3.83      20.49
O      26.95      16.22       2.62
O      18.19      19.43       5.56
O      22.69      15.71       4.62
O      21.23      19.02       1.81
O      18.96      17.65       7.56
O      17.35      19.58       3.15
O      26.18      14.54       4.88
O      27.35      18.13       1.03
O      23.70      30.79       4.37
O      10.04      27.82       7.59
O      27.96      28.77       3.86
O      29.42      31.58       7.17
O       9.27      25.81       5.81
O      10.89      30.22       7.75
O      24.46      28.52       2.69
O      23.32      32.39       6.27
O      23.69      14.48      36.96
O      32.46      17.42      33.77
O      27.96      16.46      37.48
O      29.41      13.66      34.16
O      31.69      19.41      35.57
O      33.30      15.01      33.60
O      24.46      16.72      38.66
O      23.29      12.90      35.05
O      29.30      27.85      34.05
O      38.05      31.09      37.01
O      33.57      27.35      36.05
O      35.02      30.67      33.25
O      37.28      29.31      39.01
O      38.90      31.25      34.61
O      30.06      26.16      36.29
O      28.89      29.77      32.48
O       6.88      17.38       7.28
O      15.65      14.17       4.33
O      11.15      17.89       5.28
O      12.60      14.58       8.09
O      14.88      15.95       2.33
O      16.49      14.01       6.74
O       7.65      19.06       5.02
O       6.49      15.47       8.87
O      21.34      35.99      15.43
O      35.00      38.96      12.21
O      17.08      38.00      15.94
O      15.62      35.20      12.63
O      35.77      40.96      14.00
O      34.15      36.56      12.05
O      20.58      38.25      17.11
O      21.72      34.38      13.53
O      21.35       9.22      25.91
O      12.58       6.30      29.11
O      17.08       7.24      25.40
O      15.64      10.04      28.71
O      13.34       4.30      27.32
O      11.74       8.71      29.27
O      20.57       6.97      24.22
O      21.75      10.79      27.82
O      26.95      38.93      28.82
O      18.20      35.68      25.86
O      22.68      39.42      26.83
O      21.23      36.10      29.63
O      18.97      37.47      23.86
O      17.35      35.53      28.27
O      26.18      40.62      26.59
O      27.36      37.00      30.39
O      26.95       6.32      12.52
O      18.19       9.53      15.46
O      22.69       5.81      14.52
O      21.23       9.12      11.71
O      18.96       7.76      17.46
O      17.35       9.68      13.05
O      26.18       4.64      14.78
O      27.35       8.23      10.93
