234

C       9.48      30.38      17.85
C       9.46      28.06      17.22
C       9.42      29.77      15.54
C       9.41      30.05      14.15
C       9.57      31.35      18.86
C       9.45      26.66      17.35
C       9.34      33.69      19.49
C       8.44      34.75      19.25
C       0.49      33.87      20.54
C       9.31      30.40      10.55
C       9.46      23.78       7.23
C       9.45      24.60       8.38
C       9.42      17.87      18.25
C       9.41      18.93      19.18
C       9.46      26.69       9.69
C       9.51      26.13      10.99
C       9.50      26.92      12.17
C       9.43      28.34      12.07
C       9.39      28.93      10.77
C       9.41      28.10       9.61
C       9.54      26.23      13.49
C       9.54      21.47      10.68
C       9.46      24.48      18.50
C       9.51      23.63      17.37
C       9.49      22.22      17.47
C       9.43      21.59      18.74
C       9.39      22.42      19.90
C       9.41      23.84      19.76
C       9.54      21.42      16.21
C       9.31      21.88      21.28
C       9.48      23.18       4.90
C       9.42      21.47       6.58
C       9.41      20.14       7.04
C       9.57      23.56       3.56
C       9.48      15.56      17.61
C       9.46      17.27      15.93
C       9.57      14.21      17.96
C       9.45      17.86      14.64
C       9.41       2.20      33.58
C       9.49       8.18      22.69
C       9.34      22.94       1.22
C       8.44      22.19       0.42
C       8.43      -1.44      40.07
C       9.38      -0.62      39.40
C       0.52       0.14      40.19
C       0.49      23.76       0.53
C       1.55       1.04      39.60
C       9.34      12.49      19.67
C       8.44      12.17      20.71
C       8.43      10.90      21.35
C       9.38       9.90      20.98
C       0.52      10.21      19.92
C       0.49      11.49      19.30
C       7.38      10.62      22.37
C       9.46      17.95      12.18
C       9.51      19.36      12.01
C       9.50      19.98      10.74
C       9.43      19.19       9.56
C       9.39      17.77       9.70
C       9.41      17.18      11.00
C       9.31      16.84       8.54
C       9.44       3.16      31.06
C       9.37       4.58      30.93
C       9.39       5.17      29.63
C       9.27       5.50      32.09
C       9.45      -8.00      22.72
C       9.46      -5.69      23.37
C       9.43      -7.41      25.04
C       9.41      -7.68      26.42
C       9.49      -8.97      21.71
C       9.47      -4.28      23.24
C       9.45      -0.85      35.70
C       9.46      -1.44      33.38
C       9.43       0.86      34.03
C       9.49      -1.24      37.05
C       9.47      -2.26      32.22
C       9.45       6.82      23.02
C       9.46       5.10      24.70
C       9.43       4.51      22.38
C       9.41       3.45      21.44
C       9.47       4.51      25.98
C       8.42     -11.49      20.03
C       9.38     -11.31      21.07
C       0.52      35.05      21.33
C       7.38     -10.47      19.76
C       1.55     -12.32      22.41
C       7.38      -2.18      39.32
C       1.55       9.25      19.44
C       9.46      -4.34      30.90
C       9.53      -3.78      29.60
C       9.52      -4.57      28.43
C       9.44      -5.98      28.52
C       9.37      -6.58      29.81
C       9.39      -5.75      30.97
C       9.60      -3.87      27.11
C       9.27      -8.04      30.03
C       9.46       4.41      28.45
C       9.54       3.00      28.61
C       9.52       2.37      29.88
C       9.60       0.89      29.94
C       9.46      -2.09      22.10
C       9.54      -1.25      23.23
C       9.52       0.16      23.14
C       9.44       0.79      21.87
C       9.37      -0.03      20.71
C       9.39      -1.45      20.84
C       9.60       0.96      24.40
C       9.27       0.51      19.33
H       0.05      31.05      19.77
H       9.40      31.02      13.84
H       7.76      34.64      18.49
H       1.17      33.13      20.72
H       9.29      30.97      11.47
H       8.41      30.64       9.99
H       0.40      30.73       9.97
H       9.37      24.42      20.60
H       9.43      26.17      16.46
H       9.43      24.07       9.25
H       9.43      18.88      14.67
H       9.40      18.72      20.18
H       9.56      25.12      11.11
H       9.37      28.53       8.69
H       9.60      25.14      13.41
H       8.64      26.48      14.05
H       0.65      26.57      14.04
H       9.56      19.96      12.83
H       9.60      21.94      11.66
H       8.65      21.84      10.18
H       0.65      21.78      10.11
H       9.56      24.03      16.44
H       9.60      22.03      15.31
H       8.64      20.80      16.14
H       0.65      20.77      16.22
H       9.29      20.79      21.32
H       8.41      22.24      21.77
H       0.40      22.21      21.86
H       0.05      24.50       3.36
H       9.40      19.38       6.36
H       0.05      13.57      17.24
H       9.38       2.96      34.26
H       9.66       8.83      23.43
H       7.76      21.60       0.89
H       1.17      24.29       1.09
H       1.53       1.06      38.51
H       2.54       0.72      39.91
H       1.38       2.06      39.96
H       7.76      12.88      20.99
H       1.17      11.70      18.56
H       6.66      11.43      22.46
H       7.84      10.47      23.34
H       6.82       9.72      22.09
H       2.54       9.68      19.56
H       9.37      16.16      11.09
H       9.29      17.35       7.58
H       8.40      16.24       8.61
H       0.40      16.18       8.54
H       9.33       6.19      29.55
H       9.26       4.98      33.05
H       8.35       6.09      32.02
H       0.35       6.18      32.09
H       9.46      -3.79      24.14
H       9.66      -8.65      20.78
H       9.38      -8.65      26.74
H       9.46      -1.73      31.35
H       9.66      -2.20      37.24
H       9.47       3.49      25.96
H       9.38       3.67      20.45
H       6.66     -10.79      19.01
H       7.84      -9.55      19.40
H       6.82     -10.25      20.68
H       1.53     -11.39      22.97
H       2.54     -12.43      21.97
H       1.38     -13.14      23.12
H       6.66      -2.67      39.98
H       7.84      -2.95      38.71
H       6.82      -1.49      38.68
H       1.53       8.29      19.96
H       1.38       9.05      18.38
H       9.60      -2.77      29.49
H       9.33      -6.19      31.90
H       9.67      -2.79      27.19
H       8.70      -4.10      26.53
H       0.70      -4.22      26.56
H       9.26      -8.61      29.10
H       8.35      -8.27      30.57
H       0.35      -8.39      30.62
H       9.60       2.40      27.79
H       9.67       0.42      28.96
H       8.70       0.50      30.42
H       0.70       0.59      30.51
H       9.60      -1.66      24.16
H       9.33      -2.03      20.00
H       9.67       0.34      25.30
H       8.70       1.57      24.49
H       0.70       1.61      24.37
H       9.26       1.60      19.30
H       8.35       0.16      18.86
H       0.35       0.18      18.74
N       9.49      29.04      18.18
N       9.43      28.48      15.93
N       9.45      30.72      16.53
N       9.31      32.61      18.68
N       9.42      29.04      13.24
N       9.46      25.85      18.45
N       9.49      24.13       5.90
N       9.43      18.18      16.94
N       9.45      16.54      18.57
N       9.46      25.95       8.52
N       9.42      20.23      18.76
N       9.43      22.46       7.51
N       9.45      21.86       5.27
N       9.49      15.95      16.29
N       9.31      22.77       2.56
N       9.36      -0.44      38.05
N       9.31      13.73      19.13
N       9.36       8.64      21.49
N       9.46      17.31      13.40
N       9.42      19.85       8.37
N       9.43       2.49      32.25
N       9.46      -6.66      22.41
N       9.44      -6.11      24.66
N       9.43      -8.34      24.05
N       9.46      -1.79      34.70
N       9.44      -0.12      33.10
N       9.43       0.47      35.34
N       9.47       6.42      24.34
N       9.44       4.20      23.69
N       9.43       5.84      22.06
N       9.36     -10.24      21.91
N       9.45      -3.61      32.07
N       9.43      -6.68      27.34
N       9.45       5.05      27.23
N       9.45      -3.47      22.15
N       9.43       2.16      21.86
