20

Mg       3.59       6.41       0.00
Mg       7.17       6.41       0.00
H       5.45       4.51      -0.34
H       5.36       5.01       0.89
H       1.73       8.30       0.34
H       1.82       7.80      -0.89
C       1.82       4.66       1.76
C       5.42       7.74       2.10
C       5.36       8.15      -1.76
C       1.75       5.07      -2.10
O       0.73       4.89       1.18
O       2.91       5.22       1.51
O       5.38       5.24       0.09
O       6.55       7.32       1.75
O       4.37       7.65       1.41
O       6.44       7.92      -1.18
O       4.26       7.59      -1.51
O       1.80       7.57      -0.09
O       7.79       5.49      -1.75
O       2.80       5.16      -1.41
