9

Zn       7.95      -0.04      11.53
O       6.42       0.11      12.78
C       8.15      -2.64      10.22
C       8.21       2.54      10.11
C      10.56       0.16      12.83
C       5.44      -0.67      12.96
O       8.26      -1.37      10.11
O       7.58       1.46      10.30
O       9.34      -0.21      12.91
