18

C       0.50       4.43       9.70
C      -2.02       0.23      10.58
O      -5.46       3.54       9.17
O      -3.03      -0.53      10.44
O      -4.69       5.59       9.83
O       0.60       5.57       9.22
H      -2.04       5.48       9.47
H       0.14       1.83      10.27
H      -4.18       1.80      10.19
O       1.48       3.68      10.16
O      -0.99      -0.42      10.96
C      -3.23       3.70       9.81
C      -2.03       4.41       9.69
C      -0.82       3.72       9.85
C      -0.81       2.35      10.15
C      -2.02       1.67      10.29
C      -3.24       2.33      10.10
C      -4.55       4.36       9.59
