18

O       3.03       4.72       2.95
H       6.04       9.53       4.90
H       4.15       5.65       5.08
H       5.36       7.30       1.27
C       5.77       8.52       3.01
C       5.69       8.63       4.40
C       5.13       7.58       5.14
C       4.62       6.44       4.50
C       4.72       6.34       3.11
C       5.30       7.37       2.35
C       6.21       9.71       2.20
C       4.98       7.71       6.62
O       4.72       4.68       1.41
O       6.62       9.38       1.00
C       4.09       5.14       2.44
O       6.10      10.85       2.67
O       4.82       8.93       7.01
O       4.98       6.67       7.33
