18

O       6.16       3.12       0.00
O       6.91       1.07       0.67
O      12.25       1.09       0.20
O      13.10       3.05       1.00
O      10.56       7.12       1.80
O       8.55       7.20       1.16
C       8.38       2.96       0.66
C       9.59       2.25       0.56
C      10.80       2.95       0.71
C      10.79       4.32       0.99
C       9.58       5.01       1.11
C       8.37       4.33       0.93
C       7.06       2.30       0.43
C      12.13       2.26       0.59
C       9.57       6.45       1.37
H       9.58       1.18       0.35
H      11.73       4.85       1.11
H       7.42       4.86       1.01
