16

Eu       6.57       3.58       0.15
O       7.75       1.33       0.62
O       7.18       3.82       2.56
O       7.35       1.71      -1.49
C       7.37       5.07       2.60
O       9.00       3.85      -0.25
C       4.55       6.36       0.69
O       4.72       3.03      -1.48
C       9.80       4.72      -0.69
N       7.93       0.99      -0.60
O       6.81       5.29      -1.56
N       3.47       3.41      -1.33
O       4.78       5.12       0.88
C       6.98       6.00      -2.60
N       5.15       1.42       2.45
O       5.01       1.97       1.26
