16

Eu       7.77       7.48      17.59
O       7.53       5.77      19.30
C       7.36       5.07      20.35
C       4.54       6.35      18.44
O       9.57       5.95      16.87
C       9.80       4.71      17.05
O       9.33       9.09      16.48
N      10.88       7.65      19.08
O       6.99       9.35      19.24
O       6.59       9.73      17.12
O       7.17       7.24      15.18
O       5.35       7.21      18.00
N       9.19       9.64      15.30
O       9.63       8.03      19.23
N       6.42      10.07      18.35
C       6.98       5.99      15.14
