396

C      22.71      21.37       6.43
C      22.02      21.26       7.68
C      22.04      20.03       8.42
C      22.84      18.98       7.91
C       0.73      19.06       6.71
C       0.63      20.26       5.95
C      21.35      22.40       8.17
C       1.25      20.40       4.69
C      22.64      22.59       5.67
C      21.87      23.69       6.15
C      21.77      24.89       5.39
C      22.51      25.00       4.19
C       0.45      23.94       3.70
C       0.49      22.72       4.44
C      21.25      23.57       7.42
C       1.23      21.60       3.98
C       7.48       8.65       6.57
C       6.78       9.78       6.04
C       6.80      11.03       6.73
C       7.60      11.12       7.90
C       8.35      10.04       8.43
C       8.25       8.78       7.77
C       6.11       9.64       4.81
C       8.87       7.62       8.28
C       7.40       7.38       5.89
C       6.63       7.24       4.70
C       6.53       5.98       4.05
C       7.27       4.89       4.54
C       8.07       5.00       5.71
C       8.11       6.24       6.40
C       6.01       8.40       4.17
C       8.85       6.41       7.59
C      15.10      15.12      17.52
C      14.40      14.10      16.80
C      14.42      14.08      15.37
C      15.22      15.04      14.72
C      15.97      16.04      15.38
C      15.86      16.10      16.80
C      13.73      13.11      17.54
C      16.49      17.12      17.55
C      15.02      15.17      18.96
C      14.25      14.21      19.67
C      14.15      14.27      21.09
C      14.89      15.25      21.79
C      15.69      16.20      21.11
C      15.73      16.18      19.69
C      13.63      13.17      18.93
C      16.47      17.13      18.95
C      22.71      26.50      24.18
C      22.02      26.62      22.93
C      22.04      27.84      22.20
C      22.84      28.89      22.71
C       0.73      28.81      23.90
C       0.63      27.61      24.66
C      21.35      25.47      22.44
C       1.25      27.47      25.92
C      22.64      25.28      24.94
C      21.87      24.18      24.46
C      21.77      22.99      25.22
C      22.51      22.87      26.42
C       0.45      23.93      26.91
C       0.49      25.15      26.18
C      21.25      24.30      23.19
C       1.23      26.27      26.63
C       7.48      39.22      24.05
C       6.78      38.09      24.57
C       6.81      36.84      23.88
C       7.60      36.75      22.72
C       8.35      37.83      22.18
C       8.25      39.09      22.85
C       6.11      38.23      25.81
C       8.87      40.24      22.33
C       7.41      40.49      24.72
C       6.64      40.63      25.91
C       6.53      41.89      26.57
C       7.27      42.98      26.07
C       8.07      42.87      24.91
C       8.11      41.63      24.21
C       6.01      39.47      26.44
C       8.85      41.46      23.02
C      15.10      32.75      13.09
C      14.40      33.77      13.81
C      14.42      33.79      15.24
C      15.22      32.83      15.90
C      15.97      31.83      15.23
C      15.87      31.78      13.81
C      13.73      34.77      13.07
C      16.49      30.75      13.06
C      15.02      32.70      11.66
C      14.25      33.66      10.94
C      14.15      33.60       9.52
C      14.89      32.62       8.83
C      15.69      31.67       9.50
C      15.73      31.69      10.93
C      13.63      34.70      11.68
C      16.47      30.74      11.67
C       1.22      24.17       2.51
C       0.98      23.44       1.33
C       1.85      23.55       0.23
C       2.97      24.42       0.25
C       3.16      25.22       1.41
C       2.30      25.08       2.52
C       3.87      42.22      29.92
C       3.40      42.31      28.59
C       4.28      42.25      27.49
C       5.67      42.10      27.69
C       6.16      42.01      29.01
C       5.27      42.06      30.10
C       8.84       3.85       6.10
C       8.60      38.75       7.33
C       9.47      37.74       7.78
C      10.59      37.32       7.02
C      10.78      37.92       5.74
C       9.91       3.40       5.31
C      11.49      36.34       7.56
C      11.01      35.14       8.15
C      11.89      34.22       8.75
C      13.29      34.46       8.78
C      13.77      35.65       8.20
C      12.89      36.57       7.60
C      16.45      17.12      21.91
C      16.22      18.51      21.87
C      17.09      19.41      22.52
C      18.20      18.95      23.26
C      18.40      17.55      23.37
C      17.53      16.65      22.69
C      19.11      19.91      23.84
C      18.63      21.02      24.58
C      19.51      22.00      25.08
C      20.90      21.91      24.85
C      21.39      20.81      24.11
C      20.51      19.83      23.61
C       1.22      23.70      28.10
C       0.98      24.43      29.29
C       1.85      24.32      30.39
C       2.97      23.45      30.37
C       3.16      22.65      29.20
C       2.29      22.79      28.09
C       3.87       5.65       0.69
C       3.39       5.56       2.02
C       4.27       5.62       3.12
C       5.67       5.77       2.93
C       6.15       5.86       1.61
C       5.27       5.81       0.51
C       8.84      44.02      24.51
C       8.60      44.68      23.28
C       9.47      45.69      22.83
C      10.59      46.11      23.60
C      10.79      45.50      24.87
C       9.92      44.47      25.30
C      11.49      47.09      23.05
C      11.02      48.29      22.47
C      11.89      13.65      21.86
C      13.29      13.41      21.83
C      13.78      47.78      22.42
C      12.89      46.85      23.01
C      16.46      30.75       8.71
C      16.22      29.36       8.75
C      17.09      28.46       8.10
C      18.21      28.92       7.35
C      18.40      30.32       7.24
C      17.53      31.22       7.92
C      19.11      27.96       6.78
C      18.63      26.85       6.03
C      19.51      25.87       5.54
C      20.90      25.96       5.76
C      21.39      27.06       6.50
C      20.51      28.04       7.00
C      21.24      19.74       9.59
C      19.86      20.02       9.63
C      19.06      19.61      10.71
C      19.56      18.75      11.74
C      20.95      18.43      11.68
C      21.77      18.98      10.66
C      18.64      18.19      12.71
C      17.27      17.96      12.40
C      16.38      17.37      13.31
C      16.82      16.87      14.56
C      18.18      17.09      14.88
C      19.04      17.80      14.02
C       6.01      12.19       6.40
C       4.62      12.09       6.13
C       3.83      13.23       5.96
C       4.32      14.55       6.18
C       5.71      14.66       6.50
C       6.53      13.50       6.52
C       3.40      15.67       6.18
C       2.03      15.52       6.55
C       1.14      16.60       6.59
C       1.59      17.93       6.40
C       2.95      18.10       6.05
C       3.80      17.00       5.86
C      13.62      13.21      14.53
C      12.24      13.03      14.75
C      11.44      12.30      13.86
C      11.94      11.84      12.60
C      13.33      12.06      12.35
C      14.15      12.65      13.34
C      11.02      11.27      11.63
C       9.65      11.67      11.58
C       8.76      11.17      10.62
C       9.21      10.34       9.56
C      10.57       9.95       9.59
C      11.42      10.34      10.64
C      21.24      28.13      21.02
C      19.86      27.85      20.98
C      19.06      28.26      19.90
C      19.56      29.12      18.87
C      20.95      29.44      18.94
C      21.77      28.88      19.95
C      18.64      29.68      17.90
C      17.27      29.91      18.22
C      16.38      30.50      17.30
C      16.82      31.00      16.05
C      18.18      30.78      15.73
C      19.04      30.07      16.59
C       6.01      35.68      24.21
C       4.63      35.78      24.48
C       3.83      34.64      24.66
C       4.32      33.32      24.43
C       5.71      33.21      24.12
C       6.53      34.37      24.09
C       3.40      32.20      24.43
C       2.04      32.35      24.07
C       1.14      31.27      24.02
C       1.59      29.94      24.21
C       2.95      29.77      24.56
C       3.80      30.87      24.75
C      13.63      34.66      16.08
C      12.24      34.84      15.86
C      11.45      35.57      16.76
C      11.94      36.03      18.01
C      13.33      35.81      18.26
C      14.15      35.22      17.27
C      11.02      36.59      18.99
C       9.66      36.20      19.03
C       8.76      36.70      20.00
C       9.21      37.53      21.06
C      10.57      37.92      21.03
C      11.42      37.53      19.98
H       0.02      18.11       8.44
H      22.45      25.87       3.65
H      20.74      24.35       7.83
H      20.93      22.41       9.10
H       1.75      21.63       3.11
H       1.74      19.61       4.26
H       7.64      12.01       8.38
H       7.21       3.99       4.06
H       5.50       8.37       3.28
H       5.69      10.44       4.34
H       9.37       5.64       8.01
H       9.36       7.64       9.18
H      15.26      15.02      13.70
H      14.83      15.28      22.81
H      13.12      12.42      19.40
H      13.31      12.30      17.08
H      16.99      17.87      19.41
H      16.98      17.89      17.09
H       0.02      29.76      22.17
H      22.44      22.00      26.96
H      20.74      23.52      22.78
H      20.93      25.46      21.51
H       1.75      26.24      27.50
H       1.74      28.26      26.36
H       7.64      35.86      22.23
H       7.21      43.88      26.55
H       5.50      39.51      27.33
H       5.69      37.43      26.28
H       9.38      42.23      22.61
H       9.36      40.23      21.44
H      15.26      32.85      16.92
H      14.83      32.59       7.80
H      13.12      35.45      11.21
H      13.31      35.58      13.53
H      16.99      30.00      11.20
H      16.98      29.98      13.52
H       2.48      25.63       3.37
H       2.40      42.41      28.41
H       3.89      42.28      26.54
H       7.15      41.86      29.18
H       0.21      22.76       1.28
H       5.66      24.16       0.25
H       1.68      40.72      30.21
H      10.10       3.86       4.41
H      10.01      34.93       8.15
H      11.51      33.38       9.20
H      14.77      35.88       8.25
H       7.83      39.05       7.93
H      13.28      37.45       7.25
H       9.30      37.34       8.71
H      17.72      15.65      22.75
H      17.63      21.13      24.76
H      19.12      22.81      25.58
H      22.39      20.74      23.89
H      15.45      18.88      21.31
H      20.89      19.09      23.03
H      16.92      20.41      22.40
H       2.48      22.24      27.25
H       2.39       5.46       2.21
H       3.89       5.59       4.07
H       7.15       6.02       1.43
H       0.21      25.10      29.33
H       5.66      23.71      30.36
H       1.68       7.14       0.40
H      10.10      44.01      26.20
H      10.01      48.49      22.46
H      11.51      14.49      21.42
H      14.77      47.55      22.37
H       7.83      44.38      22.68
H      13.28      45.98      23.37
H       9.30      46.09      21.90
H      17.72      32.22       7.87
H      17.63      26.74       5.85
H      19.12      25.06       5.03
H      22.39      27.13       6.72
H      15.45      28.99       9.31
H      20.89      28.78       7.58
H      16.92      27.46       8.22
H      22.76      18.74      10.66
H      16.90      18.17      11.47
H      15.41      17.24      13.02
H      18.58      16.72      15.75
H      19.41      20.52       8.86
H      19.97      18.01      14.36
H      18.09      19.90      10.70
H       7.52      13.62       6.73
H       1.66      14.61       6.82
H       0.17      16.41       6.85
H       3.34      19.04       5.94
H       4.17      11.17       6.09
H       4.74      17.19       5.52
H       2.85      13.07       5.71
H      15.14      12.78      13.13
H       9.28      12.36      12.23
H       7.79      11.49      10.65
H      10.96       9.38       8.83
H      11.79      13.45      15.57
H      12.36       9.94      10.64
H      10.47      12.16      14.12
H      22.76      29.13      19.95
H      16.90      29.70      19.14
H      15.41      30.63      17.60
H      18.58      31.15      14.86
H      19.41      27.35      21.75
H      19.98      29.86      16.25
H      18.09      27.97      19.92
H       7.52      34.25      23.89
H       1.66      33.26      23.79
H       0.17      31.46      23.76
H       3.34      28.83      24.67
H       4.17      36.70      24.52
H       4.74      30.67      25.10
H       2.85      34.80      24.91
H      15.14      35.09      17.48
H       9.28      35.50      18.38
H       7.79      36.38      19.96
H      10.96      38.49      21.78
H      11.79      34.42      15.04
H      12.36      37.93      19.97
H      10.47      35.70      16.49
N       4.21      26.18       1.43
N      11.83      37.46       4.90
N      19.44      17.05      24.19
N       4.21      21.69      29.18
N      11.83      45.96      25.71
N      19.44      30.82       6.42
N      21.52      17.46      12.54
N       6.28      15.89       6.91
N      13.90      11.80      11.08
N      21.52      30.41      18.08
N       6.28      31.98      23.71
N      13.90      36.07      19.53
O       5.01      25.97       2.37
O       3.75      27.35       1.54
O      12.63       2.83       4.61
O      11.37      36.98       3.83
O      20.25      16.34      23.54
O      18.99      16.37      25.14
O       5.01      21.90      28.24
O       3.75      20.52      29.07
O      12.63      45.04      26.00
O      11.37      46.45      26.78
O      20.25      31.53       7.07
O      18.99      31.50       5.47
O      22.48      17.92      13.20
O      21.91      16.44      11.91
O       7.24      16.23       6.17
O       6.67      15.85       8.10
O      14.86      10.99      11.15
O      14.29      12.85      10.51
O      22.48      29.95      17.41
O      21.91      31.43      18.70
O       7.24      31.64      24.44
O       6.67      32.01      22.51
O      14.86      36.88      19.47
O      14.29      35.02      20.10
