80

Cu       3.92       5.43       5.43
Cu       6.53       5.43       5.43
H       0.36       8.00       8.01
H       1.81       3.00       1.62
H       6.58       8.84       8.28
H       3.87       2.02       2.58
H       8.86      10.20       4.87
H       1.59       0.66       5.99
H       0.46       9.16       5.82
H       9.99       1.70       5.03
H       7.23       1.30       6.18
H       3.22       9.56       4.68
H       8.99       8.95       2.82
H      10.09       2.87       2.85
H       1.47       1.91       8.04
H       6.86       8.15       1.89
H       3.59       2.71       8.97
H       0.77       8.47       3.23
H       9.68       2.38       7.63
H       8.77       4.46       0.73
H       1.68       6.40      10.12
H       0.47       5.26       1.69
H       9.98       5.60       9.16
H       7.32       5.90       9.56
H       3.13       4.96       1.30
H       8.64       7.86       9.24
C       5.21       5.48       2.84
C       2.71       3.35       9.01
C       7.66       6.24       1.26
C       2.79       4.62       9.60
C       8.81       5.43       1.20
C       1.64       5.43       9.66
C      10.02       5.89       1.74
C       0.43       4.97       9.12
C      10.10       7.15       2.33
C       0.35       3.70       8.53
C       6.42       5.69      10.13
C       5.23       5.39       8.02
C       4.03       5.17       0.73
C       5.23       5.36       9.47
C       5.22       5.50       1.39
C       5.22       8.02       5.47
C       5.23       2.84       5.39
C       4.06       5.08      10.21
C       6.39       5.78       0.65
C       9.69       5.43       5.43
C       0.76       5.43       5.43
C       8.68       8.36       8.28
C       5.23       1.39       5.36
C       1.78       2.51       2.58
C       7.52       8.92       7.73
C       2.93       1.94       3.13
C       7.57       9.58       6.50
C       2.88       1.28       4.37
C       8.80       9.68       5.82
C       1.65       1.18       5.04
C       9.95       9.10       6.36
C       0.50       1.77       4.50
C       9.89       8.44       7.59
C       5.22       9.47       5.50
C       0.56       2.42       3.27
C       6.37       0.74       5.84
C       4.08      10.13       5.02
C       4.10       0.66       4.94
C       6.35      10.20       5.92
C       8.95       7.96       2.38
C       1.51       2.89       8.48
C       7.74       7.51       1.85
N       8.49       5.43       5.43
N       1.96       5.43       5.43
O       4.11       5.43       3.47
O       9.57       3.29       8.02
O       6.34       5.43       7.39
O       6.31       5.43       3.47
O       4.14       5.43       7.39
O       4.11       7.39       5.43
O       6.34       3.47       5.43
O       6.32       7.39       5.43
O       4.13       3.47       5.43
O       0.89       7.57       2.84
