40

Tb       8.92       5.55      21.00
O      15.01       3.75      15.81
Tb       1.78       5.55      16.82
O      13.52       2.60      17.09
Tb       5.36       7.48      18.89
Tb      12.52       3.56      18.90
O       4.41       8.43      17.05
O       2.87       7.34      15.79
C      10.88       2.81      21.80
C       6.97       8.26      21.81
C      14.18       2.81      16.00
C       3.73       8.25      15.98
C       6.02       4.73      21.07
C      15.71       3.60      19.67
O       7.03       4.43      21.79
O       6.08       5.64      20.16
O      15.98       4.16      18.56
O      14.53       3.22      19.99
O      10.85       6.65      21.73
C      11.88       6.33      21.05
O       1.90       6.97      18.53
O      11.86       5.40      20.17
O       3.36       7.87      19.98
O       3.66       4.38      16.05
C       2.18       7.51      19.65
O       9.08       4.18      19.24
O      10.52       3.22      17.80
O       4.63       5.64      17.62
O       6.29       8.43      20.74
O      14.21       6.66      16.05
O      13.22       5.39      17.61
O       8.80       6.98      19.27
C       4.68       4.71      16.73
O       7.36       7.86      17.80
C       9.34       3.61      18.13
O      11.55       2.61      20.73
O      10.02       3.74      21.97
C      13.18       6.33      16.73
O       7.82       7.33      22.00
C       8.54       7.50      18.14
