11

Zn      10.64       7.82       5.69
N       9.94       9.03       7.17
C       9.68       5.98       4.06
C      12.42       9.82       4.43
C      10.86       8.97       2.95
C      11.67       6.00       7.30
N      11.33       9.04       4.22
O       9.11       6.97       4.67
O      12.23       7.00       6.69
C       8.90       9.86       6.92
C      10.37       8.96       8.45
