11

C      19.00      27.04      18.26
Zn      17.27      24.98      17.04
C      17.53      26.14      19.79
C      18.29      23.21      15.40
N      16.59      26.23      15.57
C      15.50      27.01      15.79
C      17.05      26.16      14.30
C      16.27      23.17      18.66
N      17.96      26.21      18.51
O      18.86      24.19      16.02
O      15.70      24.15      18.05
