16

O       0.10      -1.24       7.13
C      -2.31      -3.78       8.25
C      -1.07      -3.70       6.17
O      -2.79      -7.34       5.09
C      -1.41      -3.13       7.40
C      -0.79      -1.84       7.83
O      -4.06      -7.46       6.91
H      -2.58      -3.34       9.21
H      -0.37      -3.20       5.51
C      -1.64      -4.92       5.79
C      -2.88      -5.00       7.88
H      -1.38      -5.36       4.83
C      -2.55      -5.57       6.64
C      -3.16      -6.86       6.21
H      -3.59      -5.50       8.53
O      -1.17      -1.36       8.96
