16

C       2.37       1.91       7.62
O       7.07       5.67       5.40
C       3.40       2.94       7.29
O       6.48       6.98       7.13
H       4.53       1.64       6.00
C       4.26       5.19       7.61
H       2.46       4.43       8.53
C       5.43       3.61       6.17
C       5.33       4.88       6.75
C       6.36       5.91       6.42
H       4.20       6.18       8.05
C       3.30       4.21       7.87
H       6.27       3.39       5.52
O       1.65       2.15       8.65
C       4.47       2.63       6.44
O       2.24       0.85       6.92
