16

H      -5.56       7.26       9.38
H      -7.01       7.54      13.42
H      -5.12       6.11      14.20
H      -3.65       5.84      10.17
C      -5.45       7.00      10.43
C      -6.41       7.46      11.35
C      -3.20       4.94      12.67
O      -8.04       9.15      11.64
C      -6.28       7.16      12.71
C      -7.57       8.27      10.85
O      -2.64       4.19      11.81
C      -5.23       6.35      13.15
O      -2.90       5.02      13.91
C      -4.40       6.21      10.86
C      -4.30       5.86      12.22
O      -7.98       8.02       9.67
