16

H      -1.43       6.44       0.26
H      -0.47       8.60       1.11
H       1.44       6.45      -2.95
H       2.41       8.56      -2.08
C      -0.60       6.92      -0.25
C      -0.07       8.11       0.23
C      -0.06       6.32      -1.40
C       1.02       6.92      -2.06
C       1.54      10.02       0.05
C       1.00       8.72      -0.45
O      -1.65       4.51      -1.37
O       2.37      10.67      -0.71
C      -0.65       5.07      -1.94
O       1.21      10.48       1.17
C       1.55       8.11      -1.58
O      -0.15       4.54      -3.00
