16

O      -3.81      11.98       3.00
C      -4.96       7.80       0.45
C      -3.31      11.45       1.94
C      -5.51       8.41       1.58
H      -2.52      10.08      -0.26
H      -3.49       7.92      -1.11
H      -5.40      10.07       2.95
O      -2.31      12.01       1.37
O      -5.16       6.04      -1.17
H      -6.36       7.96       2.08
O      -6.33       5.85       0.71
C      -3.36       9.60       0.25
C      -3.89       8.41      -0.23
C      -3.90      10.20       1.40
C      -4.98       9.60       2.06
C      -5.49       6.50      -0.05
