16

H       6.77      10.24       6.18
C       5.36      11.55       7.18
H       2.93      13.35       5.61
C       3.72      12.20       3.29
C       5.92      10.90       6.06
H       3.89      12.94       7.90
O       2.72      12.98       3.12
O       6.74      10.29       8.69
O       5.57      11.99       9.52
C       4.30      12.00       4.64
O       4.22      11.58       2.28
C       3.77      12.67       5.75
C       4.30      12.44       7.02
H       5.81      10.61       3.93
C       5.39      11.12       4.79
C       5.90      11.28       8.54
