16

O       6.01      -5.16      10.92
O       1.99      -2.47       5.35
O       3.16      -4.17       4.52
O       4.51      -3.76      11.76
C       4.96      -4.85       8.29
C       4.43      -4.62       7.03
C       4.42      -4.18       9.41
C       3.34      -3.30       9.25
C       2.83      -3.46       5.50
H       5.80      -5.53       8.43
H       4.83      -5.12       6.15
C       3.36      -3.73       6.87
C       5.01      -4.38      10.76
H       2.92      -2.79      10.11
C       2.81      -3.08       7.98
H       1.95      -2.42       7.87
