39

O      13.01       1.80      22.36
O      14.00      -0.25      22.23
O       3.38      -0.31      20.83
O       4.08      -2.24      21.84
O       9.44       0.07      13.30
O      10.57      -1.89      13.50
H      12.33      -0.75      20.37
H      10.80       1.69      21.43
H       7.26       0.69      22.05
H       8.70      -0.29      22.34
H       8.86       1.45      22.21
H       6.72       0.24      16.08
H       6.26      -1.11      17.11
C      13.11       0.60      21.91
C      12.10       0.16      20.92
C      10.94       0.84      20.76
C       9.86       0.55      19.81
C       8.54       0.46      20.32
C       7.46       0.25      19.43
C       7.69       0.20      18.04
H      10.75      -1.36      15.99
C       9.02       0.25      17.54
C      10.11       0.42      18.42
C       8.32       0.59      21.80
C       6.52      -0.04      17.11
C      11.51       0.58      17.88
C       6.08       0.04      19.91
C       5.69      -0.95      20.73
C       9.20       0.12      16.09
C      10.08      -0.69      15.46
C       4.27      -1.14      21.14
C      10.02      -0.84      14.00
H       5.63       0.49      17.45
H      11.50       1.01      16.87
H      12.11       1.23      18.53
H      12.04      -0.38      17.82
H       5.30       0.71      19.54
H       6.40      -1.69      21.11
H       8.51       0.67      15.45
