39

C      11.55       8.98      19.18
O      15.37      10.71      12.97
O      16.34       8.64      13.04
O       5.71       8.53      14.45
O       6.43       6.61      13.43
O      11.81       8.96      21.97
O      12.92       6.98      21.77
H      14.67       8.13      14.90
H      13.14      10.57      13.86
H       9.60       9.53      13.22
H      11.06       8.56      12.94
H      11.19      10.31      13.06
H       9.07       9.08      19.20
H       8.62       7.73      18.17
H       7.97       9.32      17.83
H      13.84       9.89      18.40
H      14.45      10.12      16.75
H      14.40       8.51      17.45
C      15.46       9.50      13.38
H       7.64       9.56      15.74
H       8.73       7.17      14.16
C      14.45       9.05      14.36
H      10.87       9.54      19.82
C       9.80       9.10      15.84
H      13.09       7.49      19.29
C      13.29       9.72      14.52
C      12.20       9.42      15.47
C      10.88       9.32      14.96
C       8.87       8.80      18.16
C      10.04       9.05      17.24
C       8.02       7.90      14.55
C      11.36       9.11      17.73
C      12.46       9.29      16.85
C      12.42       8.17      19.82
C      12.38       8.04      21.28
C      10.66       9.44      13.47
C      13.86       9.47      17.39
C       8.42       8.89      15.36
C       6.60       7.70      14.13
