39

H       9.85      15.97      14.85
C       9.89      17.59      13.42
C       9.20      16.59      14.24
C       7.87      16.37      14.19
H       7.28      16.97      13.49
C       7.18      15.29      14.92
C       7.29      15.15      16.32
C       6.01      13.05      16.18
H       7.36      14.77      12.26
C       5.80      13.29      14.80
C       7.96      16.18      17.19
H       6.51      14.68      19.01
H       7.90      11.98      18.51
C       5.35      11.84      16.81
C       6.36      14.56      12.66
H       4.99      11.31      14.23
C       6.41      14.38      14.16
H       5.97      13.67      12.16
C       6.88      13.86      18.39
C       7.41      12.73      20.51
C       4.88      12.39      14.09
C       7.42      12.81      19.04
O       9.21      18.47      12.77
O      11.17      17.51      13.41
C       3.87      12.83      13.32
C       2.91      11.93      12.65
O       3.04      10.67      12.83
O       2.01      12.52      11.95
O       8.16      11.82      21.04
O       6.63      13.49      21.17
H       7.29      16.50      18.01
H       8.86      15.77      17.68
H       3.68      13.89      13.18
H       8.25      17.07      16.63
H       4.30      11.77      16.51
H       5.83      10.90      16.47
C       6.74      13.99      16.93
H       5.40      11.87      17.90
H       5.72      15.41      12.37
