1104

C       2.44      -0.33       7.43
C       1.49      -1.09       8.16
C       1.29      -0.92       9.55
C       1.94       0.20      10.15
C       3.13       0.72       9.55
C       3.38       0.46       8.17
C       2.40      -0.37       5.98
C       2.43      -1.57       5.20
C       2.10      -1.52       3.80
C       1.77      -0.26       3.23
C       2.05       0.95       3.91
C       2.30       0.88       5.30
C       8.75      -7.02      16.34
C       8.85      -5.65      16.71
C       7.71      -4.84      16.98
C       6.48      -5.54      17.13
C       6.29      -6.78      16.45
C       7.44      -7.53      16.05
C       9.94      -7.84      16.23
C      11.07      -7.54      15.40
C      12.21      -8.42      15.39
C      -2.66      32.34      16.15
C      -3.83      31.99      16.90
C       9.97      -9.04      16.99
C      20.80      16.00       1.80
C      22.07      16.55       1.48
C      23.21      15.73       1.26
C      22.97      14.33       1.15
C      21.83      13.76       1.78
C      20.73      14.61       2.12
C      19.63      16.86       1.73
C      19.51      18.14       2.38
C      18.43      19.01       2.03
C      17.51      18.62       1.00
C      17.48      17.26       0.55
C      18.54      16.42       0.93
C      29.16      12.32      10.76
C      28.75      11.18      10.01
C      28.98      11.06       8.62
C      29.82      12.05       8.03
C      29.96      13.32       8.64
C      29.63      13.46      10.03
C      29.08      12.25      12.21
C      27.90      11.89      12.94
C      28.00      11.50      14.32
C      29.28      11.56      14.96
C      30.37      12.23      14.32
C      30.28      12.49      12.94
C      17.29      14.73      32.36
C      16.33      14.47      31.34
C      16.14      13.18      30.79
C      16.79      12.10      31.46
C      17.97      12.36      32.21
C      18.23      13.69      32.67
C      17.25      16.00      33.05
C      17.28      17.28      32.40
C      16.97      18.46      33.14
C      16.65      18.33      34.53
C     -27.61      17.13      35.23
C      17.16      15.97      34.47
C      23.59      10.35      22.11
C      23.69       9.34      23.11
C      22.56       8.70      23.67
C      21.32       8.93      23.00
C      21.13      10.13      22.26
C      22.28      10.86      21.82
C      24.78      10.86      21.45
C      25.92      11.42      22.13
C      27.06      11.87      21.37
C      27.02      11.82      19.93
C      25.85      11.36      19.26
C      24.81      10.80      20.03
C       5.95      32.42      12.96
C       7.23      32.43      13.59
C       8.37      33.02      12.99
C       8.13      33.82      11.83
C       6.99      33.56      11.03
C       5.89      32.84      11.59
C       4.79      32.05      13.74
C       4.66      30.85      14.51
C       3.59      30.72      15.45
C       2.66      31.81      15.62
C       2.64      32.87      14.68
C       3.70      32.97      13.75
C      14.31      26.50       5.29
C      13.91      27.72       4.68
C      14.14      28.99       5.27
C      14.98      29.01       6.42
C      15.11      27.84       7.22
C      14.79      26.57       6.64
C      14.24      25.29       4.50
C      13.06      24.83       3.83
C      13.16      23.83       2.80
C      14.44      23.25       2.53
C      15.53      23.47       3.43
C      15.44      24.53       4.35
C     -12.40     -14.40      32.93
C     -13.35     -13.38      33.22
C     -13.55     -12.26      32.38
C     -12.90     -12.30      31.11
C     -11.71     -13.08      30.96
C     -11.46     -14.14      31.88
C     -12.44     -15.63      33.69
C     -12.42     -15.71      35.12
C     -12.74     -16.95      35.77
C     -13.08     -18.07      34.96
C     -12.80     -18.08      33.57
C     -12.54     -16.84      32.95
C      -6.10      -3.33      34.27
C      -5.99      -3.70      32.90
C      -7.13      -3.86      32.06
C      -8.37      -3.39      32.59
C      -8.56      -3.35      34.00
C      -7.41      -3.33      34.85
C      -4.90      -3.01      35.04
C      -3.77      -3.88      35.19
C      -2.63      -3.45      35.95
C      12.18      18.81       0.28
C      11.01      19.63       0.21
C      -4.88      -1.75      35.70
C      -8.89      14.55      21.60
C      -7.61      14.00      21.29
C      -6.47      14.22      22.10
C      -6.71      14.82      23.37
C      -7.86      15.65      23.55
C      -8.96      15.52      22.65
C     -10.06      14.06      20.89
C     -10.18      13.99      19.46
C     -11.26      13.24      18.88
C     -12.18      12.55      19.74
C     -12.21      12.83      21.13
C     -11.14      13.59      21.67
C      -0.53      24.15      20.31
C      -0.94      24.07      21.67
C      -0.71      22.93      22.47
C       0.13      21.92      21.92
C       0.27      21.82      20.50
C      -0.06      22.95      19.69
C      -0.60      25.44      19.65
C      -1.78      26.26      19.59
C      -1.68      27.64      19.24
C      -0.40      28.16      18.87
C       0.69      27.28      18.61
C       0.59      25.95      19.07
C      24.71       6.60       3.43
C      23.76       7.61       3.14
C      23.56       8.73       3.98
C      24.21       8.69       5.25
C      25.40       7.91       5.40
C      25.65       6.85       4.48
C      24.67       5.36       2.67
C      24.70       5.29       1.24
C      24.38       4.05       0.59
C      24.05       2.92       1.39
C      24.33       2.91       2.78
C      24.57       4.15       3.41
C      31.01      17.66       2.09
C      31.11      17.30       3.46
C      29.98      17.13       4.30
C      28.74      17.60       3.77
C      28.55      17.64       2.36
C      29.70      17.66       1.51
C      32.21      17.98       1.32
C      33.34      17.11       1.17
C      34.48      17.55       0.41
C      19.60      -2.18      36.09
C      18.43      -1.36      36.15
C      32.23      19.24       0.66
C      -1.47      -6.44      14.76
C      -0.19      -6.99      15.07
C       0.95      -6.77      14.25
C       0.71      -6.17      12.98
C      -0.44      -5.34      12.81
C      -1.54      -5.47      13.71
C      -2.64      -6.94      15.47
C      -2.76      -7.01      16.90
C      -3.83      -7.75      17.48
C      -4.75      -8.44      16.62
C      -4.78      -8.16      15.23
C      -3.72      -7.41      14.68
C       6.89       3.16      16.05
C       6.48       3.08      14.69
C       6.71       1.94      13.89
C       7.56       0.93      14.44
C       7.69       0.82      15.86
C       7.37       1.96      16.67
C       6.82       4.45      16.71
C       5.64       5.27      16.77
C       5.74       6.65      17.12
C       7.02       7.17      17.49
C       8.11       6.29      17.75
C       8.01       4.96      17.29
C      -4.98      20.66      28.93
C      -5.93      19.91      28.20
C      -6.13      20.07      26.81
C      -5.48      21.19      26.21
C      -4.29      21.71      26.81
C      -4.04      21.45      28.19
C      -5.02      20.62      30.38
C      -4.99      19.42      31.16
C      -5.32      19.48      32.56
C      -5.65      20.74      33.13
C      -5.37      21.95      32.44
C      -5.12      21.87      31.06
C       1.33      13.97      20.02
C       1.43      15.34      19.65
C       0.29      16.15      19.38
C      -0.95      15.46      19.23
C      -1.13      14.21      19.90
C       0.01      13.47      20.31
C       2.52      13.15      20.13
C       3.65      13.45      20.96
C       4.79      12.57      20.96
C       4.76      11.35      20.21
C       3.59      11.00      19.46
C       2.54      11.95      19.37
C     -16.31      -4.99      34.56
C     -15.03      -4.45      34.88
C     -13.90      -5.26      35.09
C     -14.13      -6.66      35.21
C     -15.28      -7.23      34.58
C     -16.38      -6.38      34.24
C     -17.48      -4.13      34.63
C     -17.60      -2.86      33.98
C     -18.68      -1.98      34.33
C     -19.60      -2.37      35.36
C     -19.63      -3.72      35.81
C     -18.56      -4.57      35.43
C      -7.95      -8.67      25.60
C      -8.36      -9.81      26.34
C      -8.13      -9.93      27.74
C      -7.29      -8.95      28.33
C      -7.15      -7.67      27.72
C      -7.48      -7.53      26.33
C      -8.02      -8.74      24.15
C      -9.21      -9.10      23.42
C      -9.11      -9.49      22.04
C      -7.83      -9.43      21.40
C      -6.74      -8.76      22.03
C      -6.83      -8.50      23.42
C       9.87      35.72       4.00
C       8.91      35.46       5.02
C       8.72      34.17       5.57
C       9.36      33.09       4.90
C      10.55      33.35       4.15
C      10.81      34.68       3.69
C       9.83      36.99       3.31
C       9.85      38.27       3.96
C       9.53      39.45       3.22
C       9.20      39.32       1.83
C       9.48      38.12       1.13
C       9.73      36.96       1.89
C      16.17      31.34      14.25
C      16.27      30.34      13.25
C      15.13      29.70      12.69
C      13.90      29.92      13.36
C      13.71      31.12      14.10
C      14.86      31.85      14.54
C      17.36      31.85      14.91
C      18.50      32.41      14.23
C      19.63      32.86      14.99
C      34.45      -9.17      16.43
C      33.27      -9.64      17.10
C      17.39      31.79      16.33
C      13.37      11.43      23.40
C      14.65      11.44      22.77
C      15.79      12.03      23.37
C      15.55      12.83      24.53
C      14.41      12.57      25.33
C      13.31      11.85      24.77
C      12.21      11.06      22.62
C      12.09       9.86      21.84
C      11.01       9.73      20.91
C      10.09      10.81      20.74
C      10.06      11.88      21.68
C      11.12      11.98      22.61
C      21.74       5.51      31.07
C      21.33       6.73      31.68
C      21.56       7.99      31.09
C      22.40       8.02      29.94
C      22.53       6.85      29.14
C      22.21       5.58      29.72
C      21.66       4.29      31.85
C      20.48       3.84      32.53
C      20.58       2.84      33.55
C      21.86       2.26      33.82
C      22.95       2.47      32.93
C      22.86       3.54      32.01
C       1.37       3.94       1.78
C       1.35       3.13       2.94
C       2.33       2.13       3.16
C       3.39       2.04       2.21
C       3.42       2.85       1.07
C       2.38       3.78       0.79
C      -3.24      29.54      19.60
C      -3.80      30.68      18.98
C      -3.94      30.74      17.57
C      -3.72      29.54      16.85
C      -3.15      28.41      17.47
C      -2.82      28.42      18.85
C      -0.48      -3.92      34.92
C       0.91      -3.99      35.16
C      16.26      16.69       0.08
C      15.33      16.24       1.05
C      13.94      16.28       0.81
C      -1.41      -4.20      35.95
C     -11.14      12.54      16.51
C     -11.89      12.28      15.33
C     -13.16      12.86      15.13
C     -13.61      13.79      16.10
C     -12.86      14.07      17.25
C     -11.64      13.40      17.51
C     -13.47      38.47       2.52
C     -13.48      37.86       1.24
C     -12.49      38.18       0.27
C     -11.44      39.03       0.68
C     -11.42      39.62       1.96
C     -12.46      39.40       2.89
C      26.44      10.24      15.78
C      25.88      10.21      17.08
C      25.74      11.40      17.83
C      25.97      12.63      17.16
C      26.53      12.65      15.87
C      26.87      11.46      15.19
C      14.36      -7.29      15.50
C      15.75      -7.46      15.33
C       1.42      33.57      14.41
C       0.49      32.95      13.54
C      -0.90      33.14      13.70
C      13.43      -8.05      14.75
C      18.54      21.42       2.60
C      17.80      22.57       2.97
C      16.52      22.46       3.57
C      16.08      21.15       3.90
C      16.82      20.01       3.56
C      18.05      20.11       2.85
C      16.22      20.56      32.06
C      16.20      21.97      32.17
C     -27.35      22.67      32.92
C     -26.29      21.90      33.46
C     -26.25      20.50      33.33
C      17.24      19.79      32.68
C      11.60      23.20       0.98
C      11.04      22.09       0.30
C      10.90      20.84       0.95
C      11.12      20.81       2.35
C      11.69      21.92       3.02
C      12.03      23.11       2.33
C     -15.32      11.21      22.29
C     -13.93      11.45      22.23
C     -13.42      12.72      21.86
C     -14.35      13.78      21.77
C     -15.74      13.55      21.85
C     -16.26      12.24      22.01
C       3.70      29.02      17.25
C       2.96      28.13      18.07
C       1.68      27.66      17.66
C       1.23      28.03      16.37
C       1.98      28.90      15.55
C       3.20      29.46      15.99
C      23.64      -0.43       4.30
C      23.63       0.99       4.19
C      24.61       1.67       3.43
C      25.67       0.89       2.89
C      25.69      -0.51       3.02
C      24.65      -1.21       3.68
C      19.02       2.21      35.38
C      18.46       1.10      36.06
C      18.32      -0.15      35.40
C      18.55      -0.18      34.00
C      19.11       0.92      33.33
C      19.44       2.11      34.03
C      21.79      32.20      14.07
C      23.18      32.43      14.13
C      38.53      -8.28      14.50
C      37.60      -7.21      14.59
C      36.21      -7.44      14.51
C      20.85      33.23      14.34
C      11.12       8.03      19.11
C      10.38       7.14      18.29
C       9.10       6.67      18.70
C       8.66       7.04      19.99
C       9.40       7.91      20.81
C      10.62       8.47      20.36
C       8.80     -17.05      34.58
C       8.78     -17.86      33.42
C       9.76     -18.86      33.20
C      10.82     -18.94      34.13
C      10.85     -18.13      35.28
C       9.81     -17.20      35.57
C       4.18       8.55      16.76
C       3.62       9.69      17.38
C       3.48       9.75      18.79
C       3.70       8.55      19.51
C       4.27       7.42      18.89
C       4.61       7.42      17.51
C      36.63      17.07       1.44
C      -6.51      17.01       1.21
C      23.69      -4.30      36.28
C      22.76      -4.75      35.31
C      21.37      -4.70      35.55
C      35.70      16.80       0.41
C      -3.72      -8.45      19.86
C      -4.47      -8.71      21.03
C      -5.74      -8.13      21.23
C      -6.19      -7.20      20.26
C      -5.44      -6.93      19.10
C      -4.22      -7.59      18.84
C      -6.05      17.48      33.84
C      -6.06      16.88      35.12
C      -5.08      17.19      36.09
C      -4.03      18.05      35.69
C      -4.00      18.64      34.41
C      -5.04      18.42      33.48
C      33.86     -10.75      20.58
C      33.30     -10.78      19.28
C      33.16      -9.59      18.53
C      33.39      -8.36      19.20
C      33.96      -8.34      20.49
C      34.29      -9.53      21.17
C       6.94      13.70      20.86
C       8.33      13.53      21.03
C       8.84      12.57      21.95
C       7.91      11.96      22.82
C       6.52      12.15      22.66
C       6.01      12.94      21.61
C     -18.57       0.43      33.75
C     -19.31       1.58      33.39
C     -20.59       1.46      32.78
C      23.49       0.15      32.47
C      24.24      -0.99      32.81
C     -19.06      -0.88      33.51
C      -0.78      -3.91      10.75
C      -0.35      -2.83       9.95
C       0.69      -1.95      10.38
C       1.24      -2.22      11.66
C       0.77      -3.25      12.48
C      -0.23      -4.14      12.03
C       8.84      -1.16      16.93
C       8.85      -2.56      17.19
C       7.74      -3.39      16.88
C       6.62      -2.72      16.30
C       6.58      -1.33      16.10
C       7.71      -0.52      16.38
C      26.30      18.02       1.26
C      24.99      17.54       1.00
C      24.57      16.24       1.39
C      25.54      15.45       2.05
C      26.86      15.89       2.25
C      27.26      17.19       1.89
C      26.89       8.07       7.43
C      27.77       8.86       8.22
C      28.21      10.14       7.80
C      27.72      10.59       6.54
C      26.91       9.79       5.72
C      26.45       8.53       6.16
C      14.06      13.64      27.59
C      14.50      13.79      28.93
C      15.53      12.98      29.48
C      16.09      12.01      28.61
C      15.61      11.81      27.30
C      14.62      12.64      26.75
C      23.69       6.91      26.89
C      23.69       7.39      25.55
C      22.58       8.07      24.99
C      21.46       8.24      25.86
C      21.43       7.71      27.16
C      22.55       7.06      27.72
C      11.46      31.89      14.97
C      10.14      32.34      14.69
C       9.72      32.66      13.37
C      10.70      32.48      12.35
C      12.02      32.09      12.63
C      12.42      31.75      13.94
C      12.05      31.52       3.28
C      12.92      30.44       3.56
C      13.36      30.16       4.88
C      12.88      31.02       5.90
C      12.07      32.13       5.61
C      11.60      32.38       4.31
C     -15.63      -9.72      34.37
C     -15.19     -10.96      33.83
C     -14.16     -11.03      32.86
C     -13.60      -9.78      32.46
C     -14.07      -8.56      32.93
C     -15.07      -8.50      33.93
C      -6.00      -5.75      28.90
C      -5.99      -4.83      29.98
C      -7.11      -4.68      30.85
C      -8.22      -5.52      30.56
C      -8.26      -6.38      29.46
C      -7.14      -6.54      28.62
C      -3.38      13.07      20.13
C      -4.70      13.09      20.66
C      -5.12      14.07      21.60
C      -4.14      15.04      21.95
C      -2.83      15.00      21.47
C      -2.42      14.04      20.52
C      -2.80      23.39      25.66
C      -1.92      23.68      24.58
C      -1.48      22.68      23.67
C      -1.97      21.37      23.92
C      -2.77      21.05      25.02
C      -3.24      22.06      25.89
C      21.48      11.27       1.99
C      21.92      10.03       2.53
C      22.95       9.96       3.50
C      23.51      11.21       3.90
C      23.03      12.43       3.43
C      22.04      12.49       2.43
C      31.11      15.24       7.46
C      31.11      16.17       6.38
C      30.00      16.31       5.51
C      28.89      15.48       5.80
C      28.85      14.61       6.90
C      29.97      14.45       7.74
C       4.04      -7.92      16.23
C       2.72      -7.91      15.70
C       2.30      -6.92      14.76
C       3.28      -5.95      14.41
C       4.60      -5.99      14.88
C       5.00      -6.96      15.83
C       4.62       2.40      10.70
C       5.50       2.69      11.78
C       5.94       1.69      12.68
C       5.46       0.37      12.44
C       4.65       0.06      11.34
C       4.18       1.07      10.47
C      -8.21      17.08      25.61
C      -7.77      18.16      26.41
C      -6.74      19.04      25.98
C      -6.18      18.77      24.70
C      -6.65      17.74      23.88
C      -7.65      16.85      24.33
C       1.42      19.83      19.43
C       1.43      18.43      19.17
C       0.31      17.61      19.48
C      -0.80      18.27      20.06
C      -0.84      19.66      20.26
C       0.28      20.47      19.97
C     -10.81      -2.97      35.10
C     -12.12      -3.45      35.36
C     -12.54      -4.75      34.97
C     -11.57      -5.54      34.31
C     -10.25      -5.10      34.11
C      -9.85      -3.80      34.47
C     -10.22     -12.92      28.93
C      -9.34     -12.14      28.14
C      -8.90     -10.85      28.56
C      -9.39     -10.40      29.82
C     -10.19     -11.20      30.64
C     -10.66     -12.46      30.20
C       6.64      34.63       8.77
C       7.07      34.78       7.43
C       8.11      33.97       6.88
C       8.67      33.00       7.75
C       8.19      32.80       9.06
C       7.20      33.63       9.61
C      16.27      27.90       9.47
C      16.27      28.38      10.81
C      15.16      29.06      11.37
C      14.04      29.23      10.50
C      14.01      28.70       9.20
C      15.13      28.05       8.64
C      18.88      10.89      21.39
C      17.57      11.35      21.67
C      17.15      11.67      22.99
C      18.12      11.49      24.00
C      19.44      11.10      23.73
C      19.84      10.76      22.42
C      19.47      10.52      33.08
C      20.34       9.44      32.80
C      20.78       9.16      31.48
C      20.30      10.03      30.46
C      19.49      11.14      30.74
C      19.02      11.39      32.05
H       0.93      -1.79       7.66
H       2.42       1.75       5.81
H       4.76       0.67       6.66
H       5.17       1.45       8.06
H     -12.03      38.40       5.26
H       3.11      -2.81       6.68
H     -14.20      40.99       1.72
H       0.66       0.62       1.78
H       1.87       1.55      11.69
H       0.61       0.48      11.67
H       9.78      -5.22      16.74
H       9.15      -9.28      17.57
H      -6.80      32.81      14.99
H      -8.44      32.92      15.16
H      11.77      -6.28      13.93
H      10.24      -5.95      14.42
H      -0.71      31.75      15.83
H      -1.49      30.82      16.89
H       4.64      -5.49      18.02
H       5.61      -4.21      18.41
H      22.18      17.56       1.42
H      18.55      15.47       0.55
H      18.93      14.68       3.09
H      19.56      13.16       2.99
H      20.32      19.33       3.84
H      21.04      17.86       3.71
H      16.84      20.49       0.60
H       1.30      -1.63      36.03
H      23.68      12.58       0.35
H       9.74      -7.09      36.33
H      28.25      10.43      10.50
H      31.10      12.88      12.47
H      29.44      14.81      11.56
H      30.06      15.46      10.18
H      25.87      11.66      12.79
H      26.57      12.25      11.43
H      28.88      10.35      16.56
H      30.42      10.83      16.48
H      31.08      12.42       6.46
H      30.47      10.89       6.47
H      15.78      15.25      30.98
H      17.26      15.08      34.97
H     -24.92      14.88      33.60
H     -24.51      13.29      33.58
H      17.67      18.23      30.62
H      17.95      16.61      30.58
H      15.55      20.02      34.66
H      15.56      19.15      36.02
H      16.71      10.10      31.85
H      15.45      10.65      30.94
H      24.62       9.10      23.47
H      23.99      10.42      19.54
H      22.88      12.60      20.92
H      21.25      12.40      20.93
H     -17.92      12.06      23.95
H      25.08      11.48      24.00
H     -15.56      12.39      19.58
H      28.20      11.94      18.25
H      19.48       8.13      22.60
H      20.45       7.16      23.51
H       7.33      31.97      14.50
H       3.71      33.78      13.12
H       4.08      31.96      11.17
H       4.72      32.81       9.90
H       5.48      28.99      14.82
H       6.20      29.84      13.61
H       1.99      31.22      17.45
H      16.14      -9.40      16.93
H       8.84      35.39      10.72
H      24.59      -6.93      12.06
H      13.41      27.68       3.78
H      16.25      24.75       4.92
H      14.60      24.57       7.05
H      15.22      25.44       8.30
H      11.03      25.08       3.70
H      11.73      25.96       4.90
H      14.04      22.47       0.68
H      15.58      22.30       1.14
H      16.24      30.18       7.52
H      15.62      30.94       6.20
H     -13.91     -13.46      34.08
H     -12.43     -16.83      31.93
H     -10.08     -15.55      32.45
H      -9.67     -14.74      31.08
H       2.82       6.34       0.48
H     -11.73     -13.81      35.46
H       0.67       1.97       0.00
H     -14.20     -19.76      34.91
H     -12.98     -11.64      29.18
H     -14.23     -11.13      30.12
H      -5.07      -3.88      32.51
H      -5.69      -1.14      35.61
H       8.04      17.57       0.45
H       6.41      17.66       0.27
H      -3.08      -5.78      34.83
H      -4.61      -5.53      34.30
H      14.13      18.83       0.95
H      13.36      20.21       1.22
H     -10.21      -2.65      32.10
H      -9.24      -2.95      30.80
H      -7.51      13.44      20.44
H     -11.13      13.73      22.69
H     -10.76      16.33      22.10
H     -10.12      17.00      23.46
H      -9.37      14.65      17.70
H      -8.64      15.27      19.04
H     -12.85      11.26      18.31
H     -13.54      11.02      19.75
H      -6.00      15.01      25.29
H      -5.10      14.01      24.33
H      -1.43      24.87      22.08
H       1.41      25.35      18.97
H      -0.24      23.60      17.75
H       0.37      22.07      17.88
H      -3.81      26.24      19.87
H      -3.11      24.76      20.03
H      -0.81      30.16      19.12
H       0.74      29.84      18.74
H       1.40      20.38      22.37
H       0.78      21.15      23.69
H      23.20       7.53       2.28
H      24.68       4.16       4.43
H      27.03       5.44       3.91
H      27.44       6.25       5.28
H      10.24     -14.65      35.88
H      25.37       7.19       0.91
H       8.11     -19.03      36.35
H      22.95       1.22       1.43
H      24.13       9.35       7.18
H      22.87       9.86       6.24
H      32.04      17.11       3.85
H      31.41      19.85       0.74
H      15.46      -3.43      35.91
H      13.83      -3.34      36.09
H      34.03      15.21       1.53
H      32.50      15.46       2.06
H      21.55      -2.16      35.42
H      20.78      -0.78      35.14
H      26.90      18.35       4.26
H      27.87      18.05       5.56
H      -0.09      -7.55      15.92
H      -3.71      -7.27      13.67
H      -3.34      -4.66      14.26
H      -2.70      -3.99      12.90
H      -1.95      -6.34      18.66
H      -1.22      -5.72      17.32
H      -5.42      -9.73      18.05
H     -20.96      32.01      16.61
H       1.42      -5.98      11.07
H     -12.52      35.00      12.03
H       5.99       3.88      14.28
H       8.83       4.35      17.39
H       7.18       2.61      18.61
H       7.80       1.08      18.48
H       3.61       5.25      16.49
H       4.31       3.77      16.32
H       6.62       9.17      17.24
H       8.16       8.85      17.62
H       8.82      -0.61      13.98
H       8.20       0.16      12.66
H      -6.49      19.21      28.70
H      -5.00      22.75      30.54
H      -2.66      21.66      29.69
H      -2.25      22.44      28.30
H      -4.60      17.41      31.11
H      -4.31      18.18      29.68
H      -6.76      20.00      34.65
H      -6.77      21.62      34.58
H      -5.56      22.54      24.67
H      -6.81      21.47      24.69
H       2.36      15.77      19.62
H       1.73      11.71      18.79
H       0.62      11.82      21.37
H      -1.01      11.93      21.20
H       4.34      14.71      22.42
H       2.81      15.04      21.94
H       6.71      10.76      20.53
H       5.93       9.83      19.47
H      -2.79      15.51      18.34
H      -1.82      16.78      17.95
H     -14.93      -3.43      34.94
H     -18.55      -5.52      35.82
H      26.35      -6.31      33.27
H     -17.54      -7.83      33.37
H     -16.79      -1.66      32.52
H     -16.07      -3.13      32.65
H     -20.27      -0.49      35.76
H      -6.12      19.37       0.33
H     -13.42      -8.41      36.01
H       2.32      13.91       0.03
H      -8.86     -10.56      25.86
H      -6.01      -8.11      23.89
H      -7.67      -6.18      24.80
H      -7.05      -5.53      26.18
H      33.29      -9.34      23.57
H     -10.54      -8.74      24.93
H      -8.23     -10.64      19.80
H      -6.69     -10.16      19.88
H      -6.02      -8.57      29.90
H      -6.64     -10.10      29.89
H       8.35      36.24       5.38
H       9.84      36.07       1.39
H      12.18      35.88       2.75
H      12.60      34.28       2.77
H      25.08      -2.76       5.74
H      10.53      37.60       5.77
H      22.93      -0.98       1.72
H       8.09      40.13       0.34
H       9.29      31.09       4.51
H       8.03      31.64       5.42
H      17.20      30.09      12.89
H      16.57      31.41      16.82
H      30.31      -8.39      15.44
H      28.67      -8.59      15.42
H      19.19      33.05      12.41
H      17.66      32.47      12.36
H      36.40      -8.61      16.78
H      35.62      -9.05      18.11
H      12.06      29.12      13.76
H      13.03      28.15      12.85
H      14.76      10.98      21.86
H      11.13      12.78      23.24
H      11.51      10.97      25.19
H      12.14      11.82      26.46
H      12.90       8.00      21.54
H      13.62       8.85      22.75
H       9.41      10.22      18.91
H       8.72      11.59      19.43
H      16.26      14.40      25.64
H      17.17      14.07      24.30
H      20.83       6.68      32.57
H      23.67       3.75      31.44
H      22.02       3.58      29.31
H      22.64       4.45      28.06
H      18.45       4.09      32.66
H      19.15       4.97      31.46
H      21.45       1.48      35.67
H     -21.53       1.31      35.21
H     -20.87       9.19      28.84
H     -21.49       9.95      30.16
H       4.07       1.28       2.28
H       0.51       3.14       3.53
H       0.54       4.50       1.56
H       4.11       2.64       0.35
H      -3.75      29.55      15.82
H      10.98     -10.44      19.53
H      -2.93      29.63      20.58
H      -2.80      27.66      16.86
H      15.64      16.08       2.02
H       1.54      -3.58      34.46
H      -0.80      -3.46      34.06
H      13.31      16.16       1.61
H     -14.56      14.18      16.03
H     -11.58      11.52      14.72
H     -10.32      11.96      16.70
H     -13.31      14.63      17.99
H     -25.59      18.37      36.35
H      30.21      37.36       0.95
H     -14.30      38.38       3.10
H     -10.72      40.35       2.13
H      25.94      13.50      17.68
H      25.82       9.30      17.55
H      26.75       9.35      15.37
H      26.89      13.55      15.53
H       0.80      32.20      12.92
H      16.38      -7.06      16.03
H      14.05      -6.78      16.33
H      -1.53      32.51      13.19
H      15.13      21.01       4.27
H      18.11      23.48       2.61
H      19.36      21.54       2.00
H      16.38      19.09       3.68
H     -10.76     -19.65      34.08
H      15.35      22.47      31.88
H      15.39      20.09      31.69
H     -25.55      19.99      33.87
H      11.10      19.92       2.85
H      -3.86       1.14      35.64
H      11.91      24.00       0.41
H      12.05      21.77       3.97
H     -14.04      14.70      21.42
H     -13.31      10.64      22.23
H     -15.64      10.23      22.33
H     -16.37      14.30      21.55
H       0.29      27.78      16.06
H       3.26      27.98      19.03
H       4.52      29.48      17.65
H       1.54      29.25      14.69
H      26.36       1.33       2.27
H      22.78       1.49       4.48
H      22.81      -0.89       4.67
H      26.39      -1.02       2.48
H      18.52      -1.08      33.51
H      33.24      22.13       0.72
H      19.32       3.01      35.94
H      19.47       0.77      32.38
H      -6.62      -6.30      14.94
H      23.80      31.63      14.13
H      21.47      31.22      14.03
H      35.58      -6.69      14.81
H       7.71       6.79      20.30
H      10.69       6.99      17.33
H      11.94       8.49      18.71
H       8.96       8.26      21.66
H      -3.34      22.29      34.06
H       7.93     -17.85      32.84
H       7.97     -16.50      34.80
H      11.55     -18.34      36.00
H       3.67       8.56      20.54
H       3.56      10.55      16.83
H       4.49       8.64      15.78
H       4.62       6.67      19.50
H      23.07      -4.90      34.35
H      -5.88      17.42       1.91
H      36.31      17.53       2.30
H      20.74      -4.82      34.75
H      -7.14      -6.81      20.32
H      -4.16      -9.47      21.65
H      -2.90      -9.03      19.66
H      -5.89      -6.37      18.37
H      11.50      39.36       0.02
H      -6.91      16.37      35.41
H      -6.88      17.39      33.25
H      -3.30      19.37      34.24
H      33.36      -7.49      18.67
H      18.40      30.29      18.81
H      34.17     -11.64      20.99
H      34.31      -7.44      20.83
H       8.22      11.20      23.44
H       8.96      13.93      20.33
H       6.63      14.22      20.03
H       5.89      11.52      23.17
H      22.55       0.01      32.10
H     -19.00       2.49      33.74
H     -17.74       0.55      34.35
H      23.80      -1.90      32.69
H       2.05      -1.70      12.00
H      -0.77      -2.71       9.03
H      -1.48      -4.57      10.38
H       1.24      -3.40      13.38
H       5.81      -3.24      15.96
H       9.70      -2.97      17.57
H       9.70      -0.62      17.10
H       5.76      -0.93      15.65
H      25.30      14.54       2.44
H      24.33      18.18       0.54
H      26.54      18.98       1.02
H      27.51      15.26       2.74
H      27.92      11.53       6.21
H      28.05       8.49       9.13
H      26.54       7.18       7.79
H      26.59      10.18       4.84
H      16.89      11.45      28.88
H      14.07      14.53      29.50
H      13.37      14.29      27.22
H      16.08      11.11      26.72
H      20.66       8.79      25.57
H      24.54       7.26      25.00
H      24.54       6.49      27.27
H      20.60       7.90      27.73
H      10.46      32.60      11.37
H       9.48      32.42      15.47
H      11.70      31.61      15.93
H      12.66      31.98      11.84
H      13.07      30.84       6.88
H      13.21      29.83       2.79
H      11.70      31.64       2.32
H      11.75      32.71       6.40
H     -12.79      -9.74      31.83
H     -15.61     -11.82      34.19
H     -16.32      -9.72      35.13
H     -13.61      -7.70      32.62
H      -9.03      -5.55      31.19
H      -5.14      -4.29      30.15
H      -5.15      -5.87      28.35
H      -9.09      -6.97      29.34
H      -4.38      15.84      22.55
H      -5.36      12.37      20.34
H      -3.14      12.38      19.41
H      -2.18      15.73      21.77
H      -1.77      20.60      23.27
H      -1.63      24.65      24.44
H      -3.15      24.15      26.24
H      -3.10      20.09      25.12
H      24.32      11.25       4.53
H      21.49       9.17       2.17
H      20.79      11.27       1.23
H      23.50      13.29       3.75
H      28.08      15.44       5.17
H      31.96      16.71       6.21
H      31.96      15.12       8.01
H      28.02      14.02       7.02
H       3.04      -5.16      13.81
H       2.06      -8.62      16.01
H       4.28      -8.61      16.95
H       5.24      -5.26      14.58
H       5.65      -0.39      13.09
H       5.79       3.66      11.91
H       4.27       3.16      10.12
H       4.33      -0.90      11.23
H      -5.37      19.29      24.36
H      -8.19      18.28      27.33
H      -8.90      16.42      25.98
H      -6.19      17.59      22.98
H      -1.61      17.75      20.40
H       2.28      18.02      18.79
H       2.27      20.37      19.26
H      -1.67      20.06      20.70
H     -11.80      -6.45      33.92
H     -12.78      -2.81      35.82
H     -10.56      -2.01      35.34
H      -9.60      -5.73      33.62
H      -9.19      -9.46      30.15
H      -9.06     -12.50      27.23
H     -10.57     -13.81      28.57
H     -10.52     -10.81      31.52
H       9.47      32.44       7.48
H       6.65      35.52       6.86
H       5.94      35.28       9.14
H       8.66      32.10       9.64
H      13.24      29.78      10.79
H      17.12      28.25      11.36
H      17.12      27.48       9.09
H      13.18      28.89       8.63
H      17.88      11.61      24.99
H      16.91      11.43      20.89
H      19.12      10.62      20.43
H      20.09      10.99      24.51
H      20.50       9.85      29.48
H      20.63       8.84      33.57
H      19.12      10.65      34.04
H      19.17      11.71      29.96
N       1.48       0.73      11.32
N       1.08      -0.20       2.05
N       4.52       0.92       7.57
N       2.79      -2.76       5.77
N       5.45      -4.98      17.84
N      -1.55      31.55      16.26
N       7.28      -8.70      15.36
N      11.04      -6.47      14.56
N      23.87      13.52       0.50
N      16.68      19.55       0.45
N      19.64      14.10       2.76
N      20.38      18.48       3.37
N      30.44      11.79       6.84
N      29.52      10.95      16.16
N      29.74      14.67      10.65
N      26.68      11.91      12.33
N      16.32      10.82      31.33
N      15.98      19.33      35.18
N     -25.16      13.97      33.37
N      17.64      17.38      31.08
N      20.29       8.03      23.12
N      28.14      12.12      19.19
N      22.13      12.04      21.15
N      25.89      11.62      23.48
N       9.03      34.79      11.46
N       1.84      31.82      16.71
N       4.79      32.54      10.83
N       5.54      29.82      14.32
N      15.60      30.17       6.79
N      14.68      22.52       1.40
N      14.90      25.43       7.38
N      11.84      25.35       4.15
N     -13.36     -11.55      30.07
N     -13.76     -19.12      35.49
N     -10.32     -14.89      31.78
N     -12.05     -14.63      35.87
N      -9.39      -3.05      31.75
N      13.30      19.30       0.90
N      -7.56      -3.34      36.21
N      -3.80      -5.15      34.68
N      -5.82      14.66      24.39
N     -13.00      11.60      19.20
N     -10.05      16.33      22.76
N      -9.31      14.67      18.67
N       0.76      21.02      22.73
N      -0.17      29.51      18.80
N       0.06      22.88      18.33
N      -3.00      25.72      19.88
N      23.75       9.44       6.29
N      23.38       1.86       0.85
N      26.79       6.10       4.58
N      25.06       6.37       0.49
N      27.71      17.94       4.60
N      20.72      -1.69      35.46
N      29.55      17.65       0.15
N      33.31      15.84       1.68
N       1.60      -6.33      11.96
N      -5.58      -9.40      17.16
N      -2.63      -4.66      13.60
N      -1.88      -6.32      17.69
N       8.18       0.03      13.63
N       7.26       8.52      17.56
N       7.48       1.88      18.03
N       4.42       4.72      16.48
N      -5.94      21.72      25.04
N      -6.33      20.80      34.31
N      -2.90      21.91      28.78
N      -4.63      18.23      30.60
N      -1.97      16.01      18.52
N       5.87      10.56      20.10
N      -0.14      12.29      21.00
N       3.62      14.52      21.80
N     -13.24      -7.47      35.86
N     -20.42      -1.44      35.92
N     -17.47      -6.89      33.60
N     -16.73      -2.51      32.99
N      -6.66      -9.20      29.52
N      -7.59     -10.04      20.20
N      -7.37      -6.32      25.71
N     -10.42      -9.08      24.03
N       8.90      31.81       5.03
N       8.52      40.31       1.19
N      11.94      34.97       2.99
N      10.21      38.37       5.27
N      12.87      29.03      13.24
N      35.56      -8.87      17.17
N      14.70      33.03      15.21
N      18.47      32.61      12.88
N      16.45      13.80      24.90
N       9.26      10.83      19.65
N      12.22      11.55      25.53
N      12.96       8.83      22.04
N      23.02       9.18      29.57
N      22.09       1.52      34.95
N      22.32       4.44      28.97
N      19.26       4.36      32.21
