15

C       2.37       4.14       0.00
C       2.02       1.91      -0.82
C       2.73       3.11      -0.87
N       0.95       1.73      -0.01
C       3.84       3.28      -1.89
H       2.32       1.08      -1.46
H      -0.28       2.60       1.45
O       4.09       4.48      -2.23
O       4.37       2.20      -2.30
O      -0.30       4.93       2.30
C       0.59       2.75       0.81
H       2.92       5.08       0.00
C       0.90       5.00       1.89
O       1.81       5.81       2.23
C       1.30       3.95       0.88
