12

N      15.93      10.07       7.01
N      14.73      11.14       9.24
H      17.74      10.15       8.08
H      13.97      10.06       6.17
H      16.59      11.13      10.16
O      12.12      11.84       9.33
O      11.76      11.01       7.26
C      16.66      10.34       8.12
C      14.59      10.31       7.03
C      13.98      10.88       8.15
C      16.04      10.87       9.25
C      12.48      11.26       8.22
