12

N       4.79       8.66       3.62
N       5.99       7.56       1.40
O       8.60       6.87       1.31
O       8.96       7.70       3.38
H       2.98       8.55       2.57
H       6.75       8.65       4.47
H       4.13       7.58       0.49
C       4.06       8.37       2.52
C       6.13       8.40       3.61
C       6.74       7.83       2.50
C       4.68       7.83       1.40
C       8.24       7.45       2.43
