96

La      17.43      20.90      11.62
La      19.66      13.75      12.11
La      18.88      23.39      18.50
La      16.72      17.36      22.38
La      15.72      24.41       8.14
La      13.49      31.56       7.65
La      20.51      27.66      21.03
La      16.37      13.90      17.15
P      18.39      22.87      14.73
P      15.78      23.17      16.35
P      17.24      25.82      20.96
P      17.99      27.07      18.30
P      18.93      24.10      10.18
P      18.53      21.92       8.13
P      23.06      12.32      11.11
P      22.33      14.85       9.70
P      17.43      20.98      21.09
P      19.88      19.30      21.70
P      19.12      12.03      15.40
P      16.56      12.33      13.83
P      18.35      17.21      11.19
P      20.76      19.11      11.37
P      18.56      16.29      19.21
P      18.74      14.33      21.58
P      14.76      22.43       5.04
P      23.61      27.87      23.18
P      22.15      25.22      18.58
P      21.40      23.98      21.24
P      14.23      21.20       9.59
P      14.62      23.39      11.64
P      18.14      13.20       8.65
P      18.86      10.67      10.07
P      21.96      30.07      18.45
P      13.21      11.96      17.84
P      13.98      19.23      24.14
P      16.54      18.93      25.70
P      14.81      28.10       8.58
P      12.39      26.20       8.39
P      14.53      14.97      20.33
P      14.35      16.93      17.96
O      18.12      21.57      14.03
O      19.07      22.81      16.07
O      16.54      23.37      17.64
O      17.49      24.41      20.49
O      18.36      26.58      21.60
O      19.12      27.73      19.04
O      18.33      25.69      17.75
O      18.61      23.15      11.31
O      17.79      24.85       9.55
O      17.35      22.70       7.61
O      18.18      20.96       9.26
O      21.85      12.50      11.96
O      22.91      11.51       9.85
O      22.16      14.04       8.43
O      21.10      14.88      10.57
O      16.64      19.72      21.33
O      17.80      21.35      19.68
O      19.11      18.15      22.27
O      18.53      13.01      16.36
O      20.00      12.58      14.32
O      17.37      13.39      13.11
O      15.75      12.83      15.01
O      17.55      18.40      11.66
O      18.74      16.16      12.20
O      19.89      20.30      11.55
O      17.44      16.92      20.00
O      18.17      15.34      18.12
O      17.92      15.25      22.44
O      15.03      23.74       5.74
O      14.09      22.50       3.70
O      22.85      27.67      21.90
O      21.90      26.63      19.05
O      21.03      24.47      17.93
O      20.26      23.31      20.49
O      21.06      25.36      21.78
O      14.54      22.16       8.46
O      15.36      20.46      10.22
O      15.80      22.60      12.16
O      14.98      24.34      10.51
O      19.35      13.02       7.81
O      18.28      14.01       9.92
O      19.04      11.48      11.34
O      20.09      10.64       9.20
O      16.45      11.54      18.21
O      21.59      29.70      19.85
O      13.99      13.12      17.27
O      14.56      18.25      23.17
O      13.16      32.73       5.45
O      15.78      31.92       6.66
O      17.34      18.43      24.52
O      15.60      26.91       8.11
O      14.41      29.14       7.57
O      13.27      25.01       8.22
O      15.66      14.34      19.54
O      14.92      15.93      21.41
O      15.17      16.01      17.10
