126

In      -2.18       9.94       4.47
In       0.51       7.49       4.03
In       3.21       8.34       6.38
In       4.88      -1.35      10.42
In       2.19       1.10      10.85
In      -0.51       0.25       8.51
H       5.00      -3.96      10.85
H      -2.00      -3.29      12.00
H       3.66       8.45       3.83
H      -0.89      11.83       8.13
H       0.38      -2.62      11.16
H       5.70      -5.25       9.14
H       2.30       2.78      12.90
H       3.38       3.45      11.74
H      -1.74       7.67       5.64
H       1.80       9.71       0.56
H      -2.32       2.38      11.58
H       3.00       1.95      14.88
H      -0.38       1.18       6.03
H       0.69      -0.16       6.04
H       0.96       9.63       5.42
H       4.49       4.23       6.19
H       3.08       0.24       7.03
H       0.31       3.30       5.77
H      -2.30      12.56       4.04
H       4.70      11.88       2.89
H      -0.96       0.14      11.06
H       3.59      -3.24       6.76
H       2.32      11.21       3.73
H      -3.00      13.85       5.75
H       0.40       5.81       1.99
H      -0.68       5.14       3.15
H       4.44       0.92       9.25
H       0.90      -1.12      14.32
H       5.02       6.21       3.30
H      -0.31       6.64       0.01
H       3.08       7.41       8.86
H       2.01       8.75       8.85
H       1.74      -1.04       9.47
H      -1.79       4.36       8.70
H      -0.38       8.35       7.86
H       2.39       5.29       9.12
C      -3.29      10.80       7.43
C      -3.01      11.81       8.50
C       0.99      -4.93       8.72
C       1.24      -3.96       9.70
C       2.66      -3.56       9.98
C       0.18      -3.41      10.44
C      -1.11      -3.90      10.25
C      -1.37      -4.88       9.29
C      -0.60       9.62       1.81
C      -0.33      10.04       0.41
C      -1.71       1.42      14.80
C      -1.45       1.79      13.48
C      -0.03       1.83      12.98
C      -2.51       2.15      12.63
C      -3.81       2.23      13.15
C      -4.06       1.89      14.48
C       2.09       5.35       5.64
C       2.37       3.92       5.98
C       3.68       3.51       6.26
C       3.94       2.18       6.60
C       5.36       1.73       6.81
C       2.88       1.26       6.71
C       1.58       1.67       6.39
C       1.32       2.99       6.02
C       5.99      -2.21       7.46
C       5.71      -3.22       6.39
C       1.71      13.52       6.17
C       1.46      12.55       5.19
C       0.04      12.15       4.91
C       2.51      12.00       4.45
C       3.81      12.49       4.64
C       4.07      13.47       5.60
C       3.30      -1.03      13.08
C       3.03      -1.45      14.48
C       4.40       7.17       0.09
C       4.15       6.80       1.41
C       2.73       6.77       1.90
C       5.21       6.44       2.26
C       6.51       6.36       1.74
C       6.76       6.70       0.41
C       0.61       3.24       9.24
C       0.33       4.67       8.90
C      -0.98       5.08       8.63
C      -1.24       6.41       8.29
C      -2.66       6.86       8.08
C      -0.18       7.33       8.18
C       1.12       6.92       8.50
C       1.38       5.60       8.87
N      -2.22      -3.38      11.01
N       3.16       2.63      12.32
N       0.48       0.75       6.46
N       4.92      11.97       3.88
N      -0.47       5.96       2.57
N       2.22       7.84       8.43
O      -2.35      10.57       6.60
O       3.62      10.25       7.43
O       2.86      -2.28      10.15
O       3.53      -4.45      10.05
O       3.93       9.11       4.52
O       0.34       9.01       2.42
O      -1.76       9.91       2.30
O       0.16       1.34      11.79
O       0.85       2.32      13.72
O      -1.47       7.94       4.73
O       3.02       6.19       5.87
O       0.94       5.62       5.15
O       5.55       0.95       7.83
O      -1.84       2.11       6.01
O       1.24       8.71       5.64
O       5.05      -1.98       8.29
O      -0.93      -1.66       7.46
O      -0.16      10.87       4.74
O      -0.84      13.04       4.84
O      -1.23      -0.52      10.37
O       2.36      -0.42      12.46
O       4.45      -1.32      12.59
O       2.54       7.25       3.10
O       1.85       6.27       1.17
O       4.17       0.65      10.16
O      -0.32       2.41       9.02
O       1.76       2.97       9.74
O      -2.85       7.65       7.06
O       4.54       6.48       8.88
O       1.46      -0.12       9.25
