20

Zn       3.51       5.41       5.38
Zn       6.52       5.41       5.38
C       5.03       2.86       5.40
C       4.99       7.97       5.35
C      -0.62       6.55       5.67
C       0.80       4.27       5.09
C       0.80       6.55       5.67
C      -0.62       4.27       5.09
C       4.97       5.38       2.80
C       5.06       5.45       7.97
N       1.50       5.41       5.38
N      -1.31       5.41       5.38
O       3.90       3.46       5.38
O       6.12       7.37       5.38
O       6.16       3.46       5.38
O       3.87       7.37       5.38
O       3.83       5.38       3.41
O       6.19       5.44       7.35
O       6.09       5.38       3.41
O       3.93       5.44       7.35
