38

O      -0.71       9.06      11.48
O      -5.17      17.27       2.53
O      -7.65       7.51      12.15
O      -1.31       7.31      12.75
O      -6.12       5.98      12.87
O      -5.72      15.54       1.25
H      -3.80       6.81      12.72
H      -6.71       9.18      10.62
H      -2.49       9.94      10.10
H      -6.67       9.80       8.37
H      -6.94      11.41       6.52
H      -3.44      13.54       7.87
H      -3.22      11.96       9.74
H      -6.03      11.94       4.53
H      -6.14      13.43       2.56
H      -4.69      16.71       4.89
H      -4.56      15.24       6.90
C      -4.03       7.61      12.03
C      -5.36       7.90      11.70
C      -5.66       8.95      10.81
C      -4.64       9.69      10.20
C      -3.31       9.40      10.55
C      -3.00       8.40      11.48
C      -4.90      10.73       9.18
C      -5.97      10.62       8.27
C      -6.11      11.52       7.22
C      -5.20      12.58       7.04
C      -4.17      12.73       7.98
C      -4.02      11.83       9.03
C      -5.30      13.48       5.87
C      -5.76      12.99       4.63
C      -5.82      13.82       3.52
C      -5.44      15.16       3.60
C      -4.98      15.67       4.83
C      -4.91      14.84       5.95
C      -6.45       7.08      12.29
C      -1.59       8.24      11.92
C      -5.46      16.03       2.40
