22

C       3.72      -0.09       9.93
C       9.18       0.09      11.78
H       5.63      -1.69       9.30
H       7.27       1.69      12.41
C       7.81       0.02      11.22
C       5.09      -0.02      10.49
O       2.63       0.03      10.65
O      10.27      -0.03      11.05
C       5.99      -0.94       9.98
C       6.91       0.93      11.73
O       3.55      -0.29       8.65
O       9.35       0.29      13.06
C       7.33      -0.96      10.34
C       5.57       0.95      11.37
C       8.10      -2.12       9.80
C       4.80       2.12      11.91
F       8.06      -2.08       8.41
F       7.49      -3.28      10.22
F       9.41      -2.17      10.20
F       3.49       2.16      11.50
F       5.41       3.28      11.49
F       4.83       2.08      13.29
