44

Cu       1.03       1.01       0.65
Cu       2.96      -1.07       1.70
Cu       3.80       1.01      -0.65
H       3.89      -2.20      -0.38
Cu       1.87      -1.07      -1.70
H      -1.53      -1.51       1.86
Cu      -1.03      -1.01      -0.65
Cu       6.71       1.07      -1.70
Cu       5.87      -1.01       0.65
Cu      -1.87       1.07       1.70
C       7.37       3.82      -1.90
C       8.71      -0.19      -3.45
C      -2.54       3.82       1.90
C      -3.88      -0.19       3.45
O      -0.47      -0.95      -2.52
O       7.79       0.68      -3.29
O       5.30      -0.95       2.52
O      -2.96       0.68       3.29
H       3.30       1.51       1.86
H      -0.95       2.20      -0.38
O       3.15      -2.91       2.23
O       2.97       0.93       1.16
O      -0.81       1.29       0.06
C       2.29      -3.82       1.90
O       1.68      -2.91      -2.23
O       1.86       0.93      -1.16
O       5.64       1.29      -0.06
O       0.47       0.95       2.52
O       1.88      -0.68       3.29
H       1.53       1.51      -1.86
H       5.78       2.20       0.38
O       4.37       0.95      -2.52
O       2.96      -0.68      -3.29
C       2.54      -3.82      -1.90
O       6.70      -0.93      -1.16
O       0.81      -1.29      -0.06
O       6.52       2.91      -2.23
O      -1.68       2.91       2.23
O      -1.86      -0.93       1.16
O       4.03      -1.29       0.06
C       0.96       0.19       3.45
H       6.36      -1.51      -1.86
H       0.95      -2.20       0.38
C       3.88       0.19      -3.45
