22

Cr       9.92       0.59       0.14
Cr       8.21       3.56      -0.10
Cr       6.49       0.59       0.02
C      10.46       2.85      -1.94
C       6.02       2.64      -2.11
C       8.36      -1.10      -1.79
C      10.30       3.05       1.98
C       5.88       2.90       1.83
C       8.24      -0.89       2.12
O       9.51      -0.84      -1.31
O      10.54       1.73      -1.32
O       9.64       3.75      -1.59
O       6.90       3.37      -1.56
O       5.60       1.55      -1.60
O       7.30      -0.61      -1.29
O       9.42      -0.66       1.73
O      10.46       1.90       1.50
O       9.55       3.94       1.45
O       6.82       3.54       1.27
O       5.52       1.74       1.44
O       7.22      -0.44       1.53
O       8.21       1.58       0.02
