18

H      11.10       8.62       1.45
H       7.21       8.54       3.27
C      10.72      10.63       5.59
C      10.12       9.89       4.48
C      10.95       9.53       3.40
C      10.46       8.85       2.30
C       9.10       8.49       2.27
C       8.53       7.76       1.10
C       8.26       8.82       3.32
C       8.73       9.53       4.45
O      11.99      10.85       5.63
O       9.99      11.07       6.58
O       7.27       7.49       1.08
O       9.29       7.37       0.14
N       7.87       9.86       5.45
H       6.91       9.52       5.46
H       8.26      10.33       6.26
H      12.00       9.82       3.46
