264

Nd       0.67       5.11      22.46
Nd       3.39       8.02      14.04
Nd       0.67       7.73       1.64
Nd       3.39       4.82      10.07
Nd      11.67       1.31      10.41
Nd       8.96      11.24       1.98
Nd      11.67      11.53      13.70
Nd       8.96       1.60      22.12
H      11.34       3.87      17.98
H       2.96       4.13      18.12
H       1.14       3.30      14.59
H      11.51       3.65      13.59
H       9.05       2.44      14.22
H       9.49       2.91      12.79
H       9.21       3.97      13.91
H       3.34       2.72      14.07
H       5.68       4.21      14.47
H       5.41       3.37      13.18
H       5.57       2.65      14.57
H       4.79       0.60      22.21
H       0.60      12.65      21.97
H       0.98       1.48      19.72
H      12.09       0.55      19.93
H       1.16      12.77      19.69
H       5.14       6.69       2.01
H       9.26       5.74       2.08
H       9.14       7.31       4.44
H      10.25       6.27       4.12
H       8.80       5.78       4.44
H      11.34       8.97       6.13
H       2.96       8.71       5.99
H       1.14       9.54       9.52
H      11.51       9.19      10.52
H       9.05      10.40       9.89
H       9.49       9.93      11.32
H       9.21       8.87      10.20
H       3.34      10.12      10.04
H       5.68       8.63       9.63
H       5.41       9.47      10.93
H       5.57      10.19       9.54
H       4.79      12.24       1.90
H       0.60       0.19       2.14
H       0.98      11.36       4.39
H      12.09      12.29       4.18
H       1.16       0.07       4.42
H       5.14       6.15      22.10
H       9.26       7.10      22.03
H       9.14       5.53      19.67
H      10.25       6.58      19.99
H       8.80       7.06      19.67
H       1.00       2.55       5.92
H       9.39       2.29       6.07
H      11.20       3.12       2.53
H       0.83       2.77       1.54
H       3.30       3.98       2.16
H       2.86       3.51       0.73
H       3.14       2.45       1.86
H       9.01       3.70       2.01
H       6.67       2.21       2.42
H       6.94       3.05       1.13
H       6.78       3.77       2.51
H       7.56       5.82      10.15
H      11.75       6.61       9.91
H      11.37       4.94       7.67
H       0.26       5.87       7.88
H      11.19       6.49       7.63
H       7.21      12.57      14.07
H       3.09       0.68      14.13
H       3.21      11.95      16.50
H       2.10       0.16      16.17
H       3.55       0.64      16.50
H       1.00      10.29      18.19
H       9.39      10.56      18.04
H      11.20       9.72      21.58
H       0.83      10.07      22.57
H       3.30       8.86      21.95
H       2.86       9.34      23.38
H       3.14      10.39      22.25
H       9.01       9.14      22.10
H       6.67      10.63      21.69
H       6.94       9.79      22.98
H       6.78       9.07      21.60
H       7.56       7.03      13.95
H      11.75       6.23      14.20
H      11.37       7.91      16.44
H       0.26       6.97      16.23
H      11.19       6.35      16.48
H       7.21       0.27      10.04
H       3.09      12.16       9.98
H       3.21       0.89       7.61
H       2.10      12.69       7.94
H       3.55      12.20       7.61
H       1.26       0.00       0.00
H      11.09       6.42      12.05
H       8.60       6.42       0.00
H       3.75       0.00      12.05
C      12.25       3.58      16.12
C      12.17       3.85      17.54
C       0.95       4.06      18.23
C       2.18       4.00      17.62
C       2.27       3.74      16.24
C       1.10       3.51      15.49
C      10.99       3.04      14.14
C      11.53       1.63      13.99
C       9.56       3.10      13.73
C       3.77       3.55      14.35
C       3.18       4.71      13.56
C       5.23       3.43      14.12
C       0.86       4.36      19.72
C       2.92       0.34      22.95
C       4.32       0.35      22.97
C       0.94       0.65      21.60
C       0.21       1.81      22.30
C       0.68       0.65      20.09
C       5.59       6.59       1.21
C       6.94       6.58       1.14
C       8.96       6.55       2.53
C       9.63       7.77       1.89
C       9.32       6.47       4.02
C      12.25       9.26       7.99
C      12.17       8.99       6.56
C       0.95       8.78       5.88
C       2.18       8.84       6.49
C       2.27       9.10       7.87
C       1.10       9.33       8.62
C      10.99       9.81       9.97
C      11.53      11.21      10.12
C       9.56       9.74      10.38
C       3.77       9.29       9.76
C       3.18       8.14      10.55
C       5.23       9.41       9.99
C       0.86       8.48       4.39
C       2.92      12.50       1.16
C       4.32      12.49       1.14
C       0.94      12.19       2.51
C       0.21      11.03       1.81
C       0.68      12.19       4.01
C       5.59       6.26      22.90
C       6.94       6.26      22.97
C       8.96       6.29      21.57
C       9.63       5.07      22.22
C       9.32       6.37      20.09
C       0.10       2.84       4.06
C       0.18       2.57       5.49
C      11.40       2.36       6.17
C      10.16       2.42       5.57
C      10.08       2.68       4.18
C      11.25       2.91       3.44
C       1.36       3.38       2.09
C       0.82       4.79       1.94
C       2.79       3.32       1.67
C       8.58       2.87       2.29
C       9.17       1.71       1.50
C       7.11       2.99       2.07
C      11.49       2.06       7.66
C       9.43       6.08      10.89
C       8.03       6.07      10.92
C      11.41       5.77       9.54
C      12.13       4.61      10.24
C      11.67       5.77       8.04
C       6.76      12.68      13.26
C       5.40      12.68      13.20
C       3.39      12.71      14.59
C       2.72      11.49      13.94
C       3.03      12.79      16.08
C       0.10      10.00      20.04
C       0.18      10.27      18.62
C      11.40      10.48      17.93
C      10.16      10.42      18.54
C      10.08      10.16      19.93
C      11.25       9.93      20.67
C       1.36       9.46      22.02
C       0.82       8.05      22.17
C       2.79       9.52      22.44
C       8.58       9.97      21.82
C       9.17      11.13      22.60
C       7.11       9.85      22.04
C      11.49      10.78      16.44
C       9.43       6.76      13.22
C       8.03       6.78      13.19
C      11.41       7.07      14.57
C      12.13       8.23      13.86
C      11.67       7.07      16.07
C       6.76       0.16      10.85
C       5.40       0.16      10.91
C       3.39       0.13       9.52
C       2.72       1.35      10.17
C       3.03       0.05       8.03
C       2.19       0.00       0.00
C       4.99       0.00       0.00
C       6.49       0.00       0.00
C      10.16       6.42      12.05
C       7.35       6.42      12.05
C       5.86       6.42      12.05
C       4.90       6.42       0.00
C       7.67       6.42       0.00
C       3.38       6.42       0.00
C       7.45       0.00      12.05
C       4.68       0.00      12.05
C       8.97       0.00      12.05
O       3.54       3.75      15.75
O       2.86       5.74      14.12
O       3.13       4.45      12.31
O      11.03       3.46      15.51
O      11.85       1.26      12.84
O      11.55       0.87      14.96
O      12.10       4.29      20.28
O       1.91       4.65      20.35
O       2.35       0.67      21.76
O       0.89       2.77      22.65
O      11.33       1.71      22.34
O       7.07       0.53      23.16
O      10.75       7.55       1.42
O       9.07       8.85       1.91
O       7.52       6.67       2.43
O       2.81       5.83      23.16
O       3.54       9.09       8.36
O       2.86       7.11       9.99
O       3.13       8.39      11.80
O      11.03       9.38       8.59
O      11.85      11.58      11.27
O      11.55      11.97       9.14
O      12.10       8.55       3.83
O       1.91       8.19       3.76
O       2.35      12.17       2.35
O       0.89      10.07       1.45
O      11.33      11.13       1.77
O       7.07      12.31       0.95
O      10.75       5.29      22.69
O       9.07       3.99      22.20
O       7.52       6.17      21.68
O       2.81       7.02       0.95
O       8.80       2.67       3.70
O       9.49       0.68       2.07
O       9.22       1.97       0.26
O       1.32       2.96       3.46
O       0.50       5.16       0.78
O       0.80       5.55       2.91
O       0.25       2.13       8.22
O      10.44       1.77       8.30
O      10.00       5.75       9.70
O      11.46       3.65      10.60
O       1.01       4.71      10.28
O       5.28       5.89      11.10
O       1.60      11.71      13.47
O       3.28      10.41      13.96
O       4.83      12.59      14.48
O       9.53       0.59      11.11
O       8.80      10.17      20.41
O       9.49      12.16      22.04
O       9.22      10.87      23.85
O       1.32       9.88      20.65
O       0.50       7.68      23.33
O       0.80       7.30      21.20
O       0.25      10.71      15.89
O      10.44      11.07      15.81
O      10.00       7.09      14.40
O      11.46       9.19      13.51
O       1.01       8.13      13.82
O       5.28       6.95      13.00
O       1.60       1.13      10.64
O       3.28       2.43      10.15
O       4.83       0.25       9.63
O       9.53      12.25      13.00
