19

Co       4.67       0.01      16.29
C       2.83       0.76      18.76
C       4.92      -2.36      14.25
C       6.52      -0.74      13.83
C       4.42       2.38      18.34
C       6.63      -0.76      18.51
C       1.92      -0.96      15.19
C       2.78      -2.33      17.10
C       4.77       2.23      14.19
C       2.71       0.78      14.08
C       7.42       0.98      17.39
C       6.56       2.35      15.49
C       4.57      -2.20      18.39
N       3.82       1.23      17.98
N       5.52      -1.21      14.61
N       6.42       0.03      17.40
N       3.98      -1.66      17.27
N       2.93      -0.01      15.18
N       5.36       1.68      15.31
