20

Cu       3.49       4.84      14.63
Cu       3.51       2.24      14.73
N       3.57       7.00      14.55
N       3.43       0.08      14.70
O       3.62       4.75      16.65
O       3.62       2.47      16.75
O       1.49       4.73      14.80
O       1.52       2.45      14.80
O       3.33       4.65      12.63
O       3.45       2.38      12.72
O       5.49       4.65      14.53
O       5.50       2.38      14.67
C       3.65       3.64      17.28
C       0.93       3.58      14.79
C       3.32       3.49      12.10
C       6.07       3.52      14.61
C       4.57       7.65      13.93
C       2.63       7.74      15.17
C       4.56      -0.66      14.60
C       2.25      -0.57      14.73
