24

S       1.74       3.60      10.73
H       0.80       5.67      10.43
H       3.06       6.67      10.54
N       1.64       5.13      10.16
H       3.69       5.24       9.73
C       2.67       6.57       8.42
H       5.24       4.24      14.13
H       4.39       4.11      11.78
C       2.82       5.90       9.79
C       2.36       3.70      12.40
C       1.48       3.52      13.47
C       1.97       3.60      14.78
C       3.32       3.87      15.01
C       4.19       4.05      13.93
C       3.71       3.97      12.62
C       3.89       3.95      16.41
O       1.52       6.86       7.97
O       3.74       6.79       7.78
O       0.37       3.11      10.79
O       2.76       2.91       9.95
O       2.99       4.00      17.36
O       5.12       3.96      16.59
H       0.43       3.30      13.28
H       1.30       3.45      15.62
