24

S       5.96       3.60       3.05
N       5.84       5.12       3.62
O       7.29       4.07      -3.55
H       4.99       5.65       3.35
H       7.24       6.71       3.28
H       7.89       5.25       4.02
H       4.70       3.31       0.49
H       5.60       3.48      -1.84
H       9.52       4.25      -0.29
C       6.87       6.52       5.39
O       5.72       6.79       5.86
O       7.95       6.73       6.02
O       4.61       3.07       2.96
O       6.98       2.93       3.86
H       8.64       4.10       2.04
C       7.01       5.90       4.00
C       6.61       3.70       1.40
C       5.75       3.53       0.31
C       6.26       3.62      -0.99
C       7.62       3.89      -1.21
C       8.47       4.06      -0.11
C       7.97       3.97       1.19
C       8.19       3.97      -2.60
O       9.42       3.94      -2.77
