20

C       8.76       6.54      22.94
C       9.17       7.86      22.98
H       9.09       5.81      23.68
H       9.86       8.17      23.76
H       7.50       8.86      20.19
H       6.82       6.51      20.29
H      11.01      12.52      23.65
H      10.36      10.14      23.80
N       7.95       6.05      21.97
H       8.29      10.65      20.03
N      10.04      12.87      21.85
H       9.04      13.00      20.04
C       7.87       8.25      21.01
C       7.49       6.92      21.04
C      10.40      12.06      22.87
C      10.02      10.73      22.95
C       9.21      10.16      21.94
C       8.88      11.01      20.86
C       9.30      12.33      20.85
C       8.75       8.76      21.98
