20

N       7.08       4.84       8.15
N       4.96      -1.97       8.03
H       5.88       5.10       9.82
H       5.09       2.75       9.88
H       7.57       2.01       6.41
H       8.25       4.36       6.51
H       4.03      -1.62       9.86
H       4.69       0.75      10.00
H       6.66       0.26       6.17
H       5.93      -2.10       6.20
C       6.23       4.37       9.09
C       5.81       3.05       9.13
C       6.26       2.14       8.15
C       7.17       2.63       7.20
C       7.55       3.96       7.24
C       4.62      -1.17       9.07
C       5.01       0.17       9.14
C       5.79       0.74       8.11
C       6.09      -0.10       7.02
C       5.68      -1.42       7.02
