26

H      14.56      24.71      14.78
H      16.14      26.64      14.66
H      14.23      22.53      17.31
H      13.05      23.63      18.01
N       9.91      20.04      16.61
C       9.51      21.32      16.59
C      10.39      22.38      16.37
C      11.75      22.11      16.16
C      12.16      20.77      16.20
C      11.22      19.78      16.43
N      16.38      26.79      16.70
C      12.73      23.23      15.91
C      16.06      26.29      17.91
C      15.20      25.21      18.07
C      14.62      24.61      16.95
C      14.97      25.12      15.69
C      15.85      26.21      15.62
C      13.66      23.45      17.11
H       8.45      21.50      16.75
H      10.00      23.39      16.36
H      13.20      20.50      16.04
H      11.52      18.73      16.46
H      12.18      24.16      15.69
H      13.32      22.99      15.01
H      16.52      26.77      18.78
H      14.97      24.85      19.08
