24

O      13.61       2.24       3.31
O      12.27      -0.77       0.62
O      15.99      -0.70       3.36
H      12.13       4.29       3.40
H       9.95       4.60       2.21
H       9.08       2.80       0.72
H      10.43       0.72       0.40
H      16.91      -2.70       1.20
H      15.74      -3.65       2.08
H      18.19      -2.26       3.37
H      18.05      -3.99       2.99
H      17.02      -3.26       4.24
N      13.91      -0.16       2.10
N      14.51      -1.37       1.74
C      12.49       2.34       2.59
C      11.73       3.52       2.74
C      10.52       3.68       2.07
C      10.03       2.67       1.23
C      10.78       1.52       1.05
C      12.01       1.32       1.72
C      12.74       0.08       1.46
C      15.60      -1.57       2.45
C      16.43      -2.80       2.19
C      17.48      -3.09       3.26
