24

N      16.48       0.94      10.89
N      15.71       1.93      11.52
H      19.74      -2.20       8.86
H      19.19      -2.37       6.44
H      17.25      -1.08       5.50
H      15.88       0.31       7.02
H      14.50       2.48      14.24
H      14.74       3.70      13.00
H      16.99       4.31      14.03
H      15.65       4.51      15.18
H      16.73       3.09      15.29
O      18.49      -0.84      10.60
O      15.21       1.40       9.04
O      16.88       1.21      13.36
C      18.12      -0.87       9.32
C      18.90      -1.66       8.44
C      18.58      -1.74       7.08
C      17.49      -1.03       6.56
C      16.72      -0.25       7.41
C      17.01      -0.14       8.78
C      16.20       0.76       9.59
C      15.99       2.00      12.80
C      15.27       3.01      13.66
C      16.22       3.77      14.60
