16

C       0.09       1.39       0.17
C       1.24       0.59       0.28
C      -1.15       0.79      -0.11
C       0.18       2.87       0.30
H       2.19       1.07       0.49
H      -2.04       1.42      -0.20
O       0.90      -3.55      -0.20
O      -0.90       3.55       0.20
O       1.33       3.39       0.47
H      -2.19      -1.07      -0.49
H       2.04      -1.42       0.20
O      -1.33      -3.39      -0.47
C      -0.09      -1.39      -0.17
C      -1.24      -0.59      -0.28
C       1.15      -0.79       0.11
C      -0.18      -2.87      -0.30
