138

Ni       3.42      15.56      16.04
Ni       3.43      16.74      11.68
Ni       3.32      12.59       2.44
Ni       3.31      11.41       6.80
Ni       2.64      26.03      13.83
Ni       4.10       2.12       4.65
H       3.39      13.54      10.86
H       2.99       9.27      10.91
H       3.14      11.44      14.63
H       1.28      17.66      16.08
H       5.55      17.65      16.06
H       5.55      13.51      16.07
H       1.29      13.52      16.08
H       0.55       7.39      12.13
H       4.86       7.36      12.12
H       3.37      18.78      16.86
H       2.95      23.05      16.77
H       3.14      20.86      13.07
H       1.29      14.65      11.64
H       5.56      14.66      11.66
H       5.56      18.80      11.66
H       1.30      18.79      11.64
H       0.52      24.98      15.66
H       4.82      25.01      15.68
H       3.34      14.60       7.62
H       3.75      18.88       7.57
H       3.60      16.71       3.85
H       5.46      10.49       2.40
H       1.19      10.50       2.42
H       1.19      14.64       2.41
H       5.44      14.63       2.40
H       6.19      20.75       6.34
H       1.88      20.78       6.36
H       3.36       9.37       1.62
H       3.79       5.10       1.71
H       3.60       7.29       5.41
H       5.45      13.50       6.84
H       1.18      13.49       6.81
H       1.18       9.35       6.82
H       5.44       9.36       6.84
H       6.22       3.17       2.82
H       1.92       3.14       2.80
C       3.26      11.39       9.26
C       3.20      11.40      10.75
C       3.30      12.62      11.43
C       3.07      10.21      11.46
C       3.38      13.96      13.56
C       3.27      12.65      12.84
C       3.15      11.44      13.54
C       3.04      10.22      12.86
C       2.93       8.95      13.67
C       0.70      16.74      16.06
C       6.13      16.74      16.06
C       6.14      14.43      16.06
C       0.71      14.43      16.07
C      -0.01       6.89      12.92
C       5.41       6.88      12.92
C       3.22      20.94      18.45
C       3.18      20.92      16.96
C       3.28      19.70      16.28
C       3.04      22.11      16.24
C       3.37      18.34      14.17
C       3.26      19.67      14.88
C       3.14      20.86      14.16
C       3.02      22.09      14.84
C       2.91      23.35      14.04
C       0.71      15.57      11.66
C       6.14      15.57      11.67
C       6.14      17.88      11.67
C       0.71      17.88      11.65
C      -0.04      25.48      14.87
C       5.38      25.49      14.88
C       3.48      16.76       9.22
C       3.53      16.74       7.73
C       3.44      15.53       7.04
C       3.67      17.94       7.02
C       3.36      14.19       4.92
C       3.47      15.50       5.64
C       3.59      16.71       4.94
C       3.70      17.93       5.62
C       3.81      19.19       4.81
C       6.04      11.41       2.42
C       0.60      11.41       2.42
C       0.60      13.72       2.42
C       6.03      13.72       2.41
C       6.75      21.26       5.56
C       1.33      21.27       5.56
C       3.52       7.21       0.03
C       3.56       7.23       1.52
C       3.46       8.45       2.20
C       3.70       6.04       2.24
C       3.37       9.81       4.31
C       3.48       8.48       3.60
C       3.60       7.28       4.32
C       3.72       6.06       3.64
C       3.83       4.80       4.44
C       6.03      12.58       6.82
C       0.60      12.58       6.81
C       0.59      10.27       6.81
C       6.02      10.27       6.82
C       6.78       2.67       3.60
C       1.36       2.66       3.60
N       1.38      15.59      16.04
N       5.46      15.58      16.03
N       1.39      16.72      11.67
N       5.46      16.73      11.70
N       5.35      12.56       2.44
N       1.28      12.57       2.45
N       5.35      11.43       6.80
N       1.27      11.42       6.78
N       0.70       6.30      13.90
N       4.71       6.30      13.90
N       6.04      21.84       4.57
N       2.04      21.84       4.58
O       3.28      12.50       8.62
O       3.28      10.28       8.62
O       3.39      13.91      14.85
O       3.45      15.02      12.88
O       2.69       7.87      12.92
O       3.07       8.94      14.89
O       3.30      11.47       0.62
O       3.29      13.69       0.61
O       3.39      18.38      12.89
O       3.45      17.30      14.87
O       2.65      24.42      14.78
O       3.05      23.38      12.81
O       3.46      15.65       9.86
O       3.46      17.87       9.86
O       3.35      14.24       3.63
O       3.28      13.13       5.60
O       4.05      20.27       5.56
O       3.67      19.21       3.58
O       3.44      16.68      17.86
O       3.45      14.46      17.87
O       3.35       9.77       5.59
O       3.29      10.85       3.60
O       4.09       3.73       3.69
O       3.69       4.76       5.67
