231

C      14.92       2.24      51.25
C      13.55       2.52      51.26
C      12.84       1.31      51.24
C      13.76       0.25      51.22
C       4.67      13.89      51.16
C       3.28      13.58      51.13
C       2.36      14.66      51.18
C      11.46       1.03      51.23
C      13.12       3.87      51.28
C      14.08       4.91      51.32
C      -1.82       4.64      51.34
C      -1.42       3.28      51.30
C      15.95       0.28       0.48
C       8.46      14.61       0.03
C       8.46      14.63      50.52
C      15.96       0.31      50.08
C      -7.94      14.10      49.57
C      -8.21      14.24      48.18
C       7.92      14.91      47.72
C      15.69       0.45      48.70
C      15.68       0.40       1.86
C       7.92      14.85       2.84
C       9.09      14.20       2.36
C      -7.94      14.08       0.97
C      15.15       0.77      51.23
C      16.25       0.06      46.35
C       7.59      14.95       4.20
C      -0.85       5.64      51.48
C       2.88      12.24      50.97
C       2.50       0.22      16.65
C       3.43       1.26      16.66
C       2.74       2.49      16.64
C       1.36       2.22      16.62
C       0.42       3.27      16.56
C       0.84       4.63      16.53
C       2.24       4.88      16.58
C       3.18       3.83      16.63
C       4.81       0.96      16.68
C      -3.42      14.59      16.72
C      -4.35      13.52      16.74
C      -5.73      13.85      16.70
C       0.29       0.30      17.78
C       7.80      14.61      17.33
C       7.81      14.60      15.92
C       0.31       0.28      15.48
C       6.90      14.09      14.97
C       7.16      14.25      13.59
C       8.32      14.93      13.12
C       0.57       0.45      14.10
C       0.53       0.48      19.16
C       8.28      14.96      20.14
C       7.13      14.26      19.66
C       6.89      14.09      18.27
C       1.11       0.76      16.63
C      -0.06       0.16      11.75
C      17.17       0.21      21.50
C      -3.97      12.17      16.88
C      -0.11       5.65      16.37
C       6.97      11.99      33.95
C       7.40      10.66      33.96
C       8.81      10.65      33.94
C       9.26      11.97      33.92
C      -6.65      12.26      33.86
C      -5.69      11.22      33.83
C      11.13       9.88      33.88
C       9.75       9.59      33.93
C       6.45       9.61      33.98
C       5.07       9.92      34.02
C       4.60      11.27      34.04
C       5.59      12.30      34.00
C       8.14      13.86      35.08
C      16.77       0.20      34.63
C      16.76       0.20      33.22
C       8.11      13.85      32.78
C      -0.53       1.24      32.27
C      -0.52       0.93      30.89
C       8.14      14.57      30.42
C       8.13      13.54      31.40
C       8.17      13.56      36.46
C       8.19      14.60      37.44
C      -0.49       0.96      36.96
C      -0.52       1.25      35.57
C       8.12      12.92      33.93
C       8.19      14.23      29.05
C       8.27      14.27      38.80
C       3.25      11.61      34.18
C      -4.33      11.54      33.67
C       8.24      14.87      44.03
C      16.25       0.96      43.35
C      16.19       1.01      41.93
C       8.12      14.97      41.13
C       8.78      13.92      41.81
C       8.84      13.87      43.22
C      15.01       3.08      42.05
C      15.08       3.05      43.45
C       8.13      14.68       9.43
C      -7.92      14.69       8.76
C      -7.85      14.72       7.33
C       8.28      14.72       6.53
C       7.03      14.68       7.21
C       6.96      14.65       8.62
C      -5.46      14.70       7.45
C      -5.53      14.66       8.85
C       8.02      14.86      26.73
C       7.41      13.77      26.05
C       7.39      13.70      24.63
C       7.98      14.71      23.83
C      -0.08       0.83      24.51
C      -0.07       0.90      25.92
C       6.19      11.64      24.75
C       6.19      11.72      26.15
C      -0.23       8.00      51.22
C       1.19       8.04      51.24
C       1.89       9.29      51.30
C       1.19      10.52      51.31
C      -0.22      10.47      51.30
C      -0.91       9.24      51.24
C       3.97       8.10      51.34
C       3.28       6.88      51.24
C      -2.24      10.47      16.62
C      -2.91       9.21      16.65
C      -2.18       7.98      16.71
C      -0.76       7.97      16.72
C      -0.11       9.22      16.70
C      -0.82      10.43      16.64
C      13.05       6.77      16.74
C      12.33       7.98      16.65
C       0.91      10.96      33.92
C       0.16      12.17      33.94
C      -1.27      12.16      34.00
C      -2.00      10.94      34.01
C      -1.24       9.74      33.99
C       0.17       9.76      33.94
C      -1.28      14.56      34.04
C       0.12      14.57      33.94
H      -7.54      13.79       3.02
H      -7.09      13.60       0.66
H      -7.10      13.61      49.88
H      -7.55      13.84      47.52
H      14.83       0.94      48.42
H      14.82       0.88       2.15
H       5.37      13.15      51.12
H       1.36      14.48      51.14
H      10.77       1.79      51.24
H      -0.43       3.03      51.32
H      12.13       4.09      51.28
H      13.75       5.88      51.36
H      15.32       0.26       4.44
H      15.33       0.37      46.12
H       0.02       5.38      51.88
H       3.49      11.64      50.47
H       6.44      13.89      20.32
H       6.05      13.60      17.96
H       6.06      13.60      15.28
H       6.48      13.88      12.92
H       1.42       0.95      13.82
H       1.37       0.99      19.45
H      -0.58       3.04      16.52
H       2.59       5.84      16.54
H       4.18       4.04      16.64
H      -6.45      13.12      16.72
H       5.50       1.71      16.69
H      -2.41      14.40      16.77
H       0.59       0.86      21.74
H       0.68       0.80      11.52
H      -4.63      11.55      17.28
H      -0.94       5.41      15.87
H      -0.47       1.74      37.62
H      -0.52       2.22      35.26
H      -0.53       2.21      32.58
H      -0.50       1.71      30.22
H       8.14      12.56      31.12
H       8.19      12.58      36.75
H      -6.36      13.24      33.82
H      11.79       9.10      33.84
H       9.43       8.62      33.94
H       5.31      13.28      34.02
H       6.76       8.64      33.99
H       4.40       9.15      34.07
H       8.47      13.32      39.04
H       8.37      13.28      28.82
H       3.05      12.49      34.60
H      -4.12      12.37      33.18
H      14.56       3.86      41.57
H      14.67       3.79      44.02
H       9.34      13.10      43.66
H       9.25      13.18      41.28
H      -4.56      14.71       6.97
H      -4.68      14.64       9.42
H       6.04      14.61       9.07
H       6.16      14.64       6.68
H       5.74      10.86      24.27
H       5.74      10.99      26.72
H       0.35       1.72      26.37
H       0.32       1.60      23.98
H       4.99       8.13      51.38
H       3.79       5.99      51.22
H      -1.93       9.26      51.22
H      -0.76      11.33      51.31
H      12.56       5.87      16.78
H      11.31       7.98      16.62
H      -0.30      11.31      16.62
H       0.92       9.26      16.71
H       6.83       0.44      34.07
H       9.29       0.47      33.91
H       0.66       8.86      33.92
H      -1.72       8.84      34.01
N      15.57       2.07      41.35
N      15.69       1.99      44.05
N       8.39      14.77      45.36
N      16.73       0.11      39.78
N      -6.62      14.72       6.75
N      -6.75      14.66       9.45
N       7.97      14.59      10.77
N       8.40      14.70       5.18
N       6.78      12.63      24.05
N       6.79      12.78      26.75
N      16.67       0.06      28.07
N       7.90      14.62      22.48
N       3.25       9.24      51.36
N       1.93       6.90      51.20
N      -1.01       6.89      51.16
N       1.75      11.75      51.38
N      -2.90       6.82      16.76
N      -4.27       9.14      16.61
N      -2.81      11.69      16.57
N       0.02       6.87      16.78
N      -1.92      13.36      34.06
N       0.78      13.39      33.90
N       2.25      10.85      33.86
N      -3.34      10.81      34.08
