82

Ce       0.01       5.51       4.32
Ce       4.74       2.76      12.99
Ce       4.75       8.26       0.01
Ce       4.76       8.26       8.68
H      -2.60       4.82       1.48
H      -1.46       5.58       0.33
H       1.90       3.59       1.48
H       0.68       4.20       0.33
H       0.72       8.12       1.48
H       0.80       6.76       0.33
H      -2.59       4.82       7.18
H      -1.46       5.57       8.32
H       1.91       3.59       7.18
H       0.68       4.20       8.32
H       0.71       8.12       7.18
H       0.80       6.76       8.33
H       2.15       3.44      15.84
H       3.29       2.69      16.98
H       6.66       4.67      15.84
H       5.43       4.07      16.98
H       5.45       0.14      15.84
H       5.54       1.51      16.99
H       2.15       3.45      10.13
H       3.29       2.69       8.99
H       6.66       4.67      10.13
H       5.44       4.06       8.99
H       5.45       0.14      10.13
H       5.53       1.51       8.99
C      -2.20       6.91       1.85
C      -2.39       5.74       0.90
C      -0.10       2.89       1.85
C       1.01       3.31       0.90
C       2.32       6.73       1.85
C       1.41       7.48       0.90
C      -2.20       6.91       6.81
C      -2.39       5.73       7.76
C      -0.10       2.89       6.81
C       1.01       3.31       7.76
C       2.32       6.73       6.81
C       1.40       7.49       7.76
C       2.54       1.36      15.47
C       2.35       2.53      16.41
C       4.65       5.37      15.47
C       5.76       4.96      16.42
C       7.06       1.53      15.47
C       6.14       0.78      16.42
C       2.54       1.36      10.50
C       2.36       2.53       9.56
C       4.66       5.37      10.50
C       5.76       4.95       9.56
C       7.05       1.53      10.51
C       6.14       0.78       9.56
O      -1.33       6.73       2.77
O      -2.86       7.96       1.65
O      -0.37       3.73       2.77
O      -0.68       1.79       1.65
O       1.73       6.07       2.78
O       3.56       6.77       1.66
O      -1.34       6.73       5.88
O      -2.86       7.96       7.02
O      -0.37       3.73       5.88
O      -0.67       1.79       7.01
O       1.74       6.08       5.89
O       3.56       6.79       7.02
O       3.41       1.54      14.55
O       1.88       0.30      15.66
O       4.37       4.53      14.55
O       4.09       6.48      15.65
O       6.47       2.20      14.55
O       8.30       1.48      15.67
O       3.41       1.54      11.43
O       1.87       0.31      10.30
O       4.37       4.53      11.42
O       4.09       6.48      10.31
O       6.47       2.20      11.43
O       8.29       1.48      10.30
O       6.04       6.03      17.32
O       1.29       2.24       0.00
O       2.20       8.26       0.00
O       6.04       6.02       8.66
O       1.29       2.24       8.66
O       2.19       8.27       8.66
