11

Zn      13.00       7.39       0.82
C      15.26       7.35       2.50
C      10.84       7.41       2.48
N      13.08       9.19      -0.03
C      12.38       9.59      -1.15
N      13.40       6.10      -0.72
C      13.88      10.22       0.30
O      14.17       6.65       2.26
O      11.21       6.77       1.41
C      14.51       6.16      -1.47
C      12.83       4.87      -0.96
