14

C      -3.15       7.05       2.82
C      -3.65       6.81       6.58
N      -3.72       8.25       2.56
H      -4.61       9.99       3.23
H      -4.68       9.17       5.65
H      -2.59       5.64       4.33
H      -2.78       6.53       1.94
O      -3.79       8.68       1.31
O      -2.54       6.38       7.02
O      -4.77       6.86       7.18
C      -4.23       9.03       3.56
C      -4.23       8.57       4.86
C      -3.65       7.33       5.17
C      -3.08       6.59       4.13
