74

H       2.21       3.46      61.15
C       1.39       2.36      59.50
C       1.50      10.82      58.33
O       3.10       6.74      64.49
H       2.51       9.16      64.05
H       0.74       7.08      59.20
C       0.70       8.21      62.40
O       0.81       4.58      63.01
C       0.73       6.66      67.33
H      -0.94      12.46      59.78
C      -0.26       3.37      58.24
C      -0.20       4.52      59.01
C       0.75       5.81      60.92
C       1.92       9.91      63.52
H       0.73       6.55      68.41
H       2.52       4.81      68.56
H       4.59       4.71      69.96
H       6.22       8.00      68.05
N       5.48       6.36      69.08
H       4.25       8.21      66.52
N       0.60      11.80      58.56
H      -4.73       5.12      67.80
N       0.52       2.29      58.47
N      -4.03       6.55      69.12
H       4.16       5.14      65.40
H      -3.18       8.04      70.28
H      -2.45       8.66      65.71
H       4.58       5.57      63.71
H      -3.22       8.33      64.12
H       3.06       4.69      64.06
H      -0.85      10.50      61.33
H      -2.76       5.25      66.26
H      -1.60       9.14      64.20
H       2.33       8.91      58.88
H       2.16      10.98      57.47
C       0.72       6.91      64.56
C       1.95       6.66      66.65
H      -0.96       3.27      57.41
H       2.03       1.49      59.64
H       1.72      10.76      64.19
H       2.46      10.26      62.63
H      -0.86       5.35      58.79
C       1.94       6.75      65.24
H      -1.18       4.75      63.69
H      -0.36       3.18      63.97
H      -0.93       3.61      62.32
C      -1.89       7.54      68.61
C      -3.03       7.42      69.40
C       4.28       7.43      67.28
C      -2.80       5.88      67.15
C       3.76       5.45      64.42
C      -2.27       8.39      64.66
O      -1.67       7.07      64.56
C       0.72       6.98      63.07
C      -3.90       5.80      68.00
C       3.31       5.56      68.42
C      -0.49       6.94      65.27
C      -0.50       6.79      66.67
C       0.73       8.26      60.99
C      -0.17      10.57      60.49
C       0.74       7.05      60.29
O       0.62       9.38      63.14
C       0.73       9.52      60.22
C       5.38       7.31      68.12
C       0.76       5.78      62.33
H      -1.13       8.28      68.87
C       4.46       5.49      69.21
C       1.50       3.46      60.33
C       3.20       6.55      67.44
C      -0.50       4.00      63.26
C      -0.21      11.66      59.63
C       1.59       9.68      59.12
C       0.68       4.59      60.10
C      -1.75       6.75      67.46
