16

H       2.30       4.45       1.79
H       5.85       6.28       0.16
C       1.87       6.76      -2.23
C       2.67       6.25      -1.08
C       4.04       6.53      -1.00
C       2.04       5.49      -0.08
H       4.52       7.11      -1.79
H       0.98       5.28      -0.16
O       4.35       4.24       3.22
O       6.23       4.94       2.22
C       4.95       4.80       2.23
C       4.15       5.31       1.08
C       2.78       5.03       1.00
C       4.78       6.07       0.08
O       2.47       7.32      -3.22
O       0.59       6.63      -2.22
