16

H       4.37       5.81       2.10
H       4.53       4.29      -1.92
H       2.03       4.51      -2.10
H       1.87       6.03       1.92
O       6.65       5.31       1.26
O       6.70       4.47      -0.83
O      -0.25       5.00      -1.26
O      -0.30       5.84       0.83
C       6.08       4.92       0.19
C       4.59       5.02       0.11
C       3.85       5.52       1.19
C       3.94       4.66      -1.08
C       0.32       5.39      -0.19
C       1.81       5.29      -0.11
C       2.56       4.79      -1.19
C       2.46       5.66       1.08
