16

H       3.80       8.46       3.49
H       6.49       7.72       6.75
H       4.79       8.61       8.36
H       2.09       9.35       5.09
O       6.13       7.77       2.81
O       7.30       6.91       4.50
O       2.45       9.30       9.03
O       1.29      10.16       7.34
C       6.28       7.55       4.07
C       5.25       8.05       5.02
C       4.01       8.50       4.55
C       5.53       8.08       6.40
C       2.31       9.52       7.78
C       3.33       9.02       6.82
C       4.58       8.57       7.29
C       3.06       8.99       5.44
