54

Eu       2.13       0.43       0.12
Eu      -1.62       5.85       9.25
H       1.41       5.22       6.15
H       1.48       6.04       3.73
H       3.11       0.65       5.05
H       3.30      -0.25       7.44
H       1.16       5.14       1.30
H      -0.42       4.36       1.56
H      -3.32       2.51       8.18
H      -4.95       1.84       8.48
H      -0.89       1.07       3.23
H      -0.96       0.25       5.65
H      -2.59       5.64       4.33
H      -2.78       6.53       1.94
H      -0.64       1.15       8.08
H       0.94       1.92       7.82
H       3.84       3.78       1.20
H       5.47       4.44       0.89
C       1.03       6.18       5.82
C       1.03       6.64       4.52
C       4.17      -1.04       4.21
C       3.60      -0.30       5.25
C       3.67      -0.76       6.56
C       4.17      -0.53       2.79
C       1.06       3.14       0.65
C       0.40       4.48       0.84
C      -4.15       2.47       8.90
C      -4.66       3.87       9.13
C      -0.51       0.11       3.56
C      -0.51      -0.36       4.86
C      -3.65       7.33       5.17
C      -3.08       6.59       4.13
C      -3.15       7.05       2.82
C      -3.65       6.81       6.58
C      -0.54       3.15       8.72
C       0.11       1.80       8.54
C       4.67       3.82       0.48
C       5.18       2.42       0.24
N       0.52       6.95       6.82
N      -0.00      -0.67       2.56
O       0.59       6.52       8.07
O       3.06      -0.09       2.36
O       5.29      -0.58       2.19
O       1.30       2.39       1.65
O      -2.64       0.12       8.85
O      -5.91       4.09       9.28
O      -3.82       4.84       9.19
O      -0.07      -0.24       1.31
O      -2.54       6.38       7.02
O      -4.77       6.86       7.18
O      -0.78       3.90       7.72
O       3.16       6.17       0.52
O       6.42       2.21       0.07
O       4.34       1.45       0.19
