16

H      10.47       8.52       1.57
H      10.19      10.52      -1.89
H       7.90      10.77      -1.57
H       8.18       8.77       1.89
C      10.56       9.49      -0.19
C       9.96       8.97       0.94
C       9.79      10.17      -1.13
C      12.04       9.35      -0.38
C       7.81       9.79       0.19
C       8.41      10.32      -0.94
C       8.58       9.12       1.13
C       6.32       9.94       0.38
O      12.57       9.88      -1.38
O      12.65       8.73       0.52
O       5.80       9.41       1.38
O       5.72      10.56      -0.52
