16

H       8.29       9.60       5.41
H      11.05      12.29       6.48
H      12.63      11.14       5.25
H       9.88       8.45       4.18
C       9.50      11.08       6.04
C       9.17       9.92       5.37
C      10.81      11.52       6.01
C       8.48      11.82       6.87
C      11.43       9.66       4.63
C      11.76      10.82       5.29
C      10.12       9.22       4.65
C      12.45       8.92       3.79
O       8.72      12.99       7.24
O       7.40      11.21       7.20
O      12.21       7.75       3.42
O      13.53       9.53       3.47
