44

H       1.76       1.45       0.51
H       2.51       0.21       1.57
H      -2.10       0.32       0.02
H      -1.36      -0.92       1.09
H       3.53       5.04       1.05
H      -3.01      -4.58       0.64
H       1.06      -1.54       0.62
H       1.88      -0.67      -0.70
H      -1.51      -0.79      -1.99
H       0.17      -1.18      -2.34
H      -1.48       1.21       2.29
H      -0.65       2.07       0.97
H       1.89       1.29       3.61
H       0.21       1.71       3.92
H      -0.75       3.78       3.22
H       1.19      -3.23      -1.65
H       3.28       2.79       2.07
H       1.68       6.67       1.10
H      -2.83      -2.32      -0.40
H      -1.11      -6.16       0.56
C       1.58       0.52       1.07
C      -1.18       0.01       0.52
C       1.22       3.12       2.66
C      -0.78      -2.61      -1.05
C       2.59       4.77       1.51
C       0.17      -4.82      -0.57
C      -2.08      -4.28       0.15
C       1.13      -0.57       0.10
C      -0.59      -1.19      -1.55
C      -0.73       1.10       1.49
C       0.33       5.35       2.18
C       0.99       1.71       3.15
C       0.19       4.05       2.74
C       0.27      -3.52      -1.15
C       2.45       3.49       2.08
C      -0.73       6.27       2.27
C       1.55       5.69       1.54
C      -1.98      -3.00      -0.43
C       1.24      -5.72      -0.67
C      -1.03      -5.17       0.11
N       0.56       0.73       2.12
N      -0.15      -0.20      -0.52
N       2.15      -6.47      -0.79
N      -1.64       7.01       2.38
