10

H       6.36      11.47       3.87
N       9.36      14.53       2.53
O       9.81      13.97       1.50
C       8.30      13.91       3.22
H       6.35      13.52       5.71
O       9.82      15.61       2.99
N       7.79      14.40       4.38
N       7.79      12.71       2.86
C       6.90      13.44       4.79
C       6.91      12.40       3.85
