10

N      10.39       2.84       9.85
N      12.47       2.25      10.52
N      12.21       4.47       9.58
C      11.69       3.21       9.98
C      11.62       1.20      10.74
C      10.35       1.56      10.32
O      11.40       5.34       9.20
H      11.98       0.28      11.19
H       9.42       0.99      10.32
O      13.45       4.63       9.63
