10

H      12.52      11.34      11.09
H      13.79      11.64       8.63
O      13.40      16.45       9.36
O      12.36      16.20      11.30
N      12.45      13.48      11.02
N      13.49      13.72       9.02
N      12.88      15.74      10.25
C      12.76      12.24      10.54
C      13.40      12.39       9.31
C      12.91      14.33      10.08
