10

O      16.56      16.40       4.01
H      15.95      14.94       9.25
O      14.51      16.04       4.75
H      18.51      15.73       8.45
N      17.55      16.00       6.57
N      15.47      15.39       7.22
N      15.75      16.10       4.91
C      16.25      15.83       6.21
C      16.31      15.29       8.29
C      17.59      15.67       7.89
