10

N       8.84      10.38      12.72
N       9.43      11.82      14.60
C       9.56      11.74      11.09
C       8.93      10.53      11.37
C       9.41      11.51      13.22
H       9.81      12.20      10.14
H       8.55       9.78      10.69
O       9.94      12.91      14.95
O       8.91      11.01      15.40
N       9.87      12.35      12.28
