169

Cd      13.32      13.93      13.72
Cd       0.99       1.83       3.49
Cd       7.16       7.88       8.60
H       7.56       4.53      11.96
H       8.33      13.99      13.75
H       3.26       4.42      12.16
H       5.27      11.59      12.52
H       4.41       9.16      11.41
H      11.31      11.42      12.71
H      10.91       9.38      11.08
H      12.32       8.44      10.59
H       3.09       8.24      13.66
H       2.60       6.48      15.31
H       9.20       5.53      13.24
H       9.65       7.35      11.62
H      10.65       3.79      14.73
H       9.69       4.85      15.77
H       3.12       3.84      15.34
H       2.92       1.01       0.71
H       9.15       2.27       0.90
H       6.75      11.23       5.24
H       5.98       1.78       3.45
H      11.05      11.34       5.04
H       9.04       4.18       4.68
H       9.91       6.60       5.79
H       3.00       4.35       4.49
H       3.41       6.38       6.12
H       2.00       7.32       6.61
H      11.22       7.53       3.54
H      11.71       9.29       1.89
H       5.11      10.23       3.96
H       4.66       8.41       5.58
H       3.67      11.97       2.47
H       4.62      10.91       1.43
H      11.19      11.93       1.86
H      11.39      14.75      16.49
H       5.16      13.49      16.30
H      10.72       7.96       8.19
H       2.12       6.00       9.36
H       8.33       4.81       9.63
H       1.65       4.00      10.74
H      10.24       3.64      11.19
H       3.84      14.11      11.03
H      10.49       3.69       7.56
H       9.27      10.56       8.75
H       8.26      11.37      12.79
H       7.09       8.95      11.99
H      10.76      12.42      10.44
H       9.65      13.06      11.66
H       7.08      13.33      10.36
H      10.98      13.83       8.60
H       3.60       7.80       9.01
H      12.19       9.76       7.84
H       5.99      10.95       7.57
H      12.67      11.77       6.46
H       4.07      12.13       6.01
H      10.48       1.65       6.17
H       3.82      12.08       9.64
H       5.05       5.20       8.45
H       6.05       4.39       4.41
H       7.22       6.81       5.21
H       3.55       3.34       6.76
H       4.66       2.70       5.54
H       7.24       2.43       6.84
H       3.34       1.94       8.60
C       5.40       4.61      12.00
C       6.64       4.03      12.26
C       6.71       2.78      12.90
C      10.80      14.99      13.20
C       8.29      14.95      13.26
C       4.28       2.70      12.98
C       5.79      14.78      13.31
C       4.22       3.96      12.36
C       4.27      11.19      12.37
C       3.86      10.01      11.80
C      12.34      11.16      12.49
C      11.84       8.93      11.45
C      11.54       7.91      12.52
C      12.42       7.66      13.57
C      12.15       6.65      14.50
C      11.00       5.87      14.38
C      10.10       6.14      13.34
C      10.36       7.15      12.42
C      10.68       4.72      15.31
C       2.70       4.12      16.30
C       1.92       1.25       0.36
C      10.10       1.92       0.51
C       8.91      11.15       5.20
C       7.67      11.73       4.94
C       7.60      12.98       4.30
C       3.52       0.78       4.00
C       6.02       0.81       3.95
C      10.03      13.06       4.22
C       8.53       0.99       3.89
C      10.09      11.80       4.84
C      10.04       4.57       4.83
C      10.45       5.75       5.40
C       1.98       4.60       4.71
C       2.48       6.83       5.75
C       2.78       7.85       4.68
C       1.89       8.10       3.63
C       2.17       9.11       2.70
C       3.32       9.89       2.82
C       4.21       9.63       3.86
C       3.95       8.61       4.78
C       3.63      11.04       1.89
C      11.62      11.64       0.91
C      12.39      14.51      16.84
C       4.21      13.84      16.70
C      10.48       7.01       8.66
C      11.30       6.06       9.21
C       9.19       5.41       9.38
C      10.89       3.82      10.33
C      10.90       2.62       9.41
C       3.64      14.19       9.97
C      10.67       2.72       8.03
C       8.83      10.44       9.74
C       8.29      10.83      11.86
C       7.72       9.65      11.45
C       9.70      12.60      10.67
C       9.09      13.49       9.60
C       7.72      13.75       9.59
C       9.91      14.03       8.60
C       3.84       8.75       8.54
C       3.01       9.70       7.99
C       5.13      10.35       7.82
C       3.42      11.94       6.87
C       3.42      13.14       7.79
C      10.68       1.57       7.24
C       3.64      13.04       9.17
C       5.48       5.33       7.46
C       6.02       4.93       5.35
C       6.59       6.12       5.75
C       4.61       3.16       6.53
C       5.22       2.28       7.60
C       6.59       2.01       7.61
C       4.41       1.73       8.60
S       5.30       6.19      11.16
S       9.02       9.57       6.04
N       3.16      11.90      12.79
N      12.73      10.01      11.88
N      11.63       4.55      16.40
N       0.95       1.70       1.23
N      11.16       3.86       4.41
N       1.59       5.75       5.32
N       2.68      11.21       0.80
N      13.37      14.06      15.97
N       9.16       6.60       8.77
N      10.47       5.06       9.67
N       8.06       9.42      10.12
N       9.00      11.31      10.77
N       5.15       9.16       8.43
N       3.85      10.71       7.53
N       6.25       6.35       7.08
N       5.31       4.45       6.44
O       6.52       6.23      10.30
O       5.30       7.25      12.19
O       4.05       6.11      10.36
O       9.10       2.83      12.97
O      10.82      13.80      13.67
O       5.86      13.65      13.87
O       1.92       2.53      12.99
O       7.79       9.53       6.90
O       9.02       8.52       5.01
O      10.26       9.65       6.84
O       5.22      12.93       4.23
O       3.49       1.96       3.53
O       8.45       2.11       3.33
O      12.40      13.24       4.21
