208

Sm       9.56       1.75       6.76
Sm      10.88       6.87       1.64
Sm      17.70       5.45       0.44
Sm      19.02       0.33       5.56
Sm      21.76       6.76       5.45
Sm       6.82       1.64       0.33
Sm      13.63       0.44       1.75
Sm      14.95       5.56       6.87
Sm      22.97      12.65       7.64
Sm      21.65       7.53      12.76
Sm      14.84       8.95      13.96
Sm      13.52      14.08       8.84
Sm      10.77       7.64       8.95
Sm      25.72      12.76      14.08
Sm      18.90      13.96      12.65
Sm      17.58       8.84       7.53
H      11.24       3.58       3.64
H       9.37       1.45       3.13
H      19.38       3.62       3.56
H      17.51       5.75       4.07
H       7.18       3.64       3.62
H       5.31       3.13       5.75
H      15.31       3.56       3.58
H      13.44       4.07       1.45
H      21.29      10.82      10.77
H      23.16      12.95      11.27
H      13.15      10.78      10.84
H      15.03       8.65      10.33
H      25.35      10.77      10.78
H      27.23      11.27       8.65
H      17.22      10.84      10.82
H      19.09      10.33      12.95
C      10.57       4.09       4.01
C       9.01       4.77       5.31
C       9.15       5.70       4.30
C       8.56       7.00       3.97
C       8.10       4.64       6.46
C       8.53       1.25       3.46
C       6.90       0.85       4.85
C       6.46       0.71       3.53
C       5.12       0.46       2.96
C       6.31       0.67       6.22
C      18.70       3.11       3.19
C      17.14       2.43       1.89
C      17.28       1.50       2.90
C      16.69       0.20       3.23
C      16.23       2.56       0.74
C      16.66       5.95       3.74
C      15.03       6.35       2.35
C      14.59       6.49       3.67
C      13.25       6.74       4.24
C      14.45       6.53       0.99
C       6.50       4.01       3.11
C       4.94       5.31       2.43
C       5.08       4.30       1.50
C       4.49       3.97       0.20
C      20.30       6.46       2.56
C      20.72       3.46       5.95
C      19.10       4.85       6.35
C      18.66       3.53       6.49
C      17.32       2.96       6.74
C      18.51       6.22       6.53
C      14.63       3.19       4.09
C      13.07       1.89       4.77
C      13.22       2.90       5.70
C      12.62       3.23       7.00
C      12.17       0.74       4.64
C      12.59       3.74       1.25
C      10.96       2.35       0.85
C      10.53       3.67       0.71
C       9.18       4.24       0.46
C      10.38       0.99       0.67
C      21.97      10.31      10.39
C      23.53       9.63       9.09
C      23.38       8.70      10.10
C      23.97       7.40      10.43
C      24.43       9.76       7.95
C      24.01      13.15      10.94
C      25.64      13.55       9.55
C      26.07      13.69      10.87
C      27.42      13.94      11.44
C      26.22      13.73       8.19
C      13.83      11.30      11.21
C      15.39      11.97      12.52
C      15.25      12.90      11.50
C      15.84      14.20      11.17
C      16.30      11.84      13.66
C      15.87       8.45      10.66
C      17.50       8.05      12.05
C      17.94       7.91      10.74
C      19.28       7.66      10.16
C      18.09       7.87      13.42
C      26.03      10.39      11.30
C      27.59       9.09      11.97
C      27.45      10.10      12.90
C      28.04      10.43      14.20
C      12.23       7.95      11.84
C      11.81      10.94       8.45
C      13.44       9.55       8.05
C      13.87      10.87       7.91
C      15.22      11.44       7.66
C      14.02       8.19       7.87
C      17.90      11.21      10.31
C      19.46      12.52       9.63
C      19.31      11.50       8.70
C      19.91      11.17       7.40
C      20.37      13.66       9.76
C      19.94      10.66      13.15
C      21.57      12.05      13.55
C      22.01      10.74      13.69
C      23.35      10.16      13.94
C      22.15      13.42      13.73
N      10.15       5.27       3.47
N       9.91       3.75       5.14
N       8.23       1.20       4.78
N       7.48       0.98       2.67
N      18.28       1.93       3.73
N      18.04       3.45       2.07
N      16.36       6.00       2.43
N      15.62       6.23       4.53
N       6.08       3.47       1.93
N       5.84       5.14       3.45
N      20.43       4.78       6.00
N      19.68       2.67       6.23
N      14.21       3.73       5.27
N      13.98       2.07       3.75
N      12.30       2.43       1.20
N      11.55       4.53       0.98
N      22.39       9.13      10.93
N      22.62      10.65       9.27
N      24.30      13.20       9.63
N      25.05      13.43      11.73
N      14.25      12.47      10.67
N      14.49      10.95      12.34
N      16.17       8.40      11.98
N      16.92       8.18       9.87
N      26.45      10.93      12.47
N      26.69       9.27      10.95
N      12.10       9.63       8.40
N      12.85      11.73       8.18
N      18.32      10.67       9.13
N      18.56      12.34      10.65
N      20.24      11.98      13.20
N      20.98       9.87      13.43
O       9.07       7.65       3.02
O       7.56       7.46       4.62
O       7.04       5.37       6.54
O       8.38       3.78       7.32
O       5.04       0.61       1.70
O       4.15       0.06       3.68
O       5.15       0.23       6.39
O       7.06       1.00       7.19
O      25.33      13.95       4.18
O      23.82      14.14       2.58
O      15.17       1.83       0.66
O      24.65       3.42      14.28
O      13.17       6.59       5.50
O      12.28       7.14       3.52
O      13.28       6.97       0.81
O      15.20       6.20       0.01
O      13.14       3.02      13.95
O      11.62       4.62      14.14
O      19.24       6.54       1.83
O      20.58       7.32       3.42
O      17.24       1.70       6.59
O      16.35       3.68       7.14
O      17.35       6.39       6.97
O      19.26       7.19       6.20
O      13.14       4.18       7.65
O      11.62       2.58       7.46
O      11.11       0.66       5.37
O      20.58      14.28       3.78
O       9.10       5.50       0.61
O       8.21       3.52       0.06
O       9.22       0.81       0.23
O      11.13       0.01       1.00
O      23.46       6.75      11.38
O      24.98       6.94       9.78
O      25.49       9.03       7.86
O      24.15      10.62       7.08
O      27.49      13.79      12.70
O      28.38      14.34      10.73
O      27.38      14.17       8.01
O      25.47      13.40       7.22
O       7.20       0.45      10.22
O       8.71       0.26      11.82
O      17.36      12.57      13.74
O       7.89      10.98       0.12
O      19.36       7.82       8.90
O      20.25       7.26      10.88
O      19.25       7.43      13.59
O      17.34       8.20      14.39
O      19.40      11.38       0.45
O      20.91       9.78       0.26
O      13.29       7.86      12.57
O      11.95       7.08      10.98
O      15.30      12.70       7.82
O      16.18      10.73       7.26
O      15.18       8.01       7.43
O      13.27       7.22       8.20
O      19.40      10.22       6.75
O      20.91      11.82       6.94
O      21.42      13.74       9.03
O      11.95       0.12      10.62
O      23.43       8.90      13.79
O      24.32      10.88      14.34
O      23.32      13.59      14.17
O      21.40      14.39      13.40
