16

V       1.36       3.02       4.21
V      -2.12       3.53       4.21
C      -0.06       4.83       6.10
O      -1.21       4.62       5.60
C      -0.06       4.83       2.32
O       1.04       4.36       2.77
O      -1.21       4.62       2.82
O       4.53       2.18       5.63
O       2.27       1.92       5.61
C       3.43       1.71       6.10
O       4.53       2.18       2.79
O       2.27       1.92       2.81
O       1.04       4.36       5.65
C       3.43       1.71       2.32
O      -0.11       2.36       4.21
O       3.35       4.17       4.21
