32

C      11.51       5.02      13.27
C      12.83       5.80      13.24
N      12.10       5.75      15.47
H      13.25       5.25      19.08
O      11.53       3.04      15.73
H      10.10       5.79      14.80
H      13.15       8.38      16.12
H      15.93       8.60      19.40
O      15.08       5.00      20.74
O      16.24      10.31      17.38
O       9.36       3.46      15.16
O      14.12      10.66      16.61
H      14.02       6.52      14.96
H      13.86       4.75      14.86
O      15.84       7.04      21.39
O      10.94       5.70      17.44
H      11.69       3.96      13.03
H      10.77       5.41      12.56
H      12.66       6.85      12.96
H      13.55       5.38      12.53
C      10.59       3.77      15.28
C      14.67       6.85      19.34
C      13.11       6.71      17.49
C      13.64       6.18      18.67
C      11.97       6.00      16.80
C      15.23       6.25      20.59
C      10.99       5.15      14.73
C      14.58       8.63      17.70
C      13.58       7.94      17.02
C      15.02       9.97      17.20
C      15.14       8.08      18.86
C      13.35       5.71      14.68
