32

H       4.36       4.47       7.30
H       5.10       1.15       9.96
H       2.59       0.62       6.53
H       7.13       4.31      11.86
N       6.91       3.27      10.03
H       7.49       1.96       8.46
H       7.24       1.15      10.01
O       2.94      -1.41       7.95
H       8.60       2.42      12.11
O       8.70       6.16      11.31
O       2.25       2.30       4.74
O       2.80       4.41       5.38
H       9.58       2.96       9.24
O       4.00      -0.96       9.91
H       9.63       1.39      10.09
O       8.22       5.58       9.16
H       9.78       3.64      11.61
O       5.36       4.94       9.84
C       3.57      -0.65       8.76
C       4.24       3.42       7.57
C       8.24       5.38      10.42
C       4.89       2.90       8.69
C       4.65       1.57       9.06
C       3.22       1.26       7.14
C       2.77       3.14       5.54
C       3.42       2.60       6.78
C       5.74       3.79       9.55
C       7.72       4.05      10.97
C       3.81       0.76       8.30
C       7.62       2.06       9.54
C       8.89       3.09      11.29
C       9.07       2.32       9.98
