450

C       7.88      12.05       0.79
C       8.21      13.38       0.50
C       7.32      13.85      32.74
C       6.45      12.81      32.39
C       5.42      13.02      31.46
C       5.24      14.30      30.90
C       6.13      15.35      31.25
C       7.18      15.13      32.17
C       9.29      14.01       1.15
C      10.04      13.27       2.08
C       9.73      11.91       2.38
C       8.62      11.32       1.73
C       5.58      11.15       0.79
C       5.25       9.82       0.50
C       6.14       9.35      32.75
C       7.01      10.39      32.39
C       6.28       8.07      32.17
C       7.33       7.85      31.26
C       8.22       8.90      30.90
C       8.04      10.18      31.46
C       4.84      11.88       1.73
C       3.73      11.29       2.38
C       3.42       9.93       2.08
C       4.17       9.19       1.15
C       6.73      11.60      33.18
C       9.25       8.67      29.96
C       2.99      12.03       3.33
C       4.20      14.52      29.96
C      10.47      11.18       3.33
C      19.99      10.39      11.86
C      20.98       9.44      11.57
C      -5.06       9.97      10.61
C      -5.52      11.24      10.26
C      -4.83      12.03       9.33
C      -3.63      11.55       8.77
C      -3.17      10.25       9.13
C      -3.88       9.45      10.04
C      20.98       8.19      12.21
C      19.96       7.90      13.14
C      18.94       8.85      13.44
C      18.98      10.11      12.80
C      -6.54      12.83      11.86
C      -7.52      13.78      11.57
C      18.52      13.24      10.61
C      18.99      11.97      10.26
C      17.35      13.76      10.04
C      16.63      12.96       9.12
C      17.09      11.67       8.76
C      18.30      11.18       9.32
C      -5.53      13.10      12.80
C      -5.49      14.36      13.45
C      -6.51      15.31      13.15
C      -7.53      15.02      12.22
C      20.18      11.61      11.05
C      16.38      10.88       7.83
C      -4.49      14.63      14.40
C      -2.92      12.33       7.83
C      17.93       8.58      14.39
C      12.48       0.72      22.92
C      11.17       0.34      22.63
C      -2.24      22.63      21.67
C      -0.90      22.40      21.32
C      -0.56      21.40      20.39
C      -1.58      20.60      19.83
C      -2.93      20.85      20.18
C      -3.27      21.87      21.10
C      10.09       0.96      23.27
C      10.35       1.99      24.21
C      11.68       2.39      24.51
C      12.75       1.73      23.86
C       0.97      22.48      22.92
C       2.29      22.86      22.63
C      15.70       0.58      21.68
C      14.36       0.81      21.33
C      16.73       1.33      21.11
C      16.40       2.35      20.19
C      15.05       2.60      19.83
C      14.02       1.80      20.39
C       0.70      21.47      23.86
C       1.77      20.81      24.51
C       3.10      21.21      24.21
C       3.37      22.24      23.28
C       0.01      23.25      22.12
C      14.73       3.60      18.89
C       1.51      19.80      25.46
C      -1.26      19.59      18.89
C      11.94       3.40      25.46
C      10.82       6.72      26.54
C      11.14       5.34      26.68
C      11.20       4.82      27.99
C      10.53       6.90      28.91
C      10.74       7.45      25.26
C      13.91      10.49       4.41
C      12.55      10.89       4.54
C      12.07      11.11       5.86
C      14.21      10.66       6.78
C      14.59      10.20       3.13
C      15.62       5.94      15.47
C      16.65       6.92      15.60
C      17.08       7.22      16.92
C      15.62       5.59      17.84
C      15.03       5.50      14.19
C       2.63      16.48      26.54
C       2.30      17.85      26.67
C       2.25      18.37      27.99
C       2.93      16.30      28.91
C       2.71      15.74      25.26
C      -0.45      12.71       4.41
C       0.91      12.31       4.54
C       1.39      12.10       5.86
C      -0.75      12.55       6.78
C      -1.12      13.01       3.13
C      -2.17      17.26      15.48
C      -3.19      16.29      15.61
C      -3.61      15.98      16.93
C      -2.15      17.60      17.85
C      -1.58      17.70      14.20
C       7.88      12.05      18.99
C       8.21      13.38      18.70
C       7.32      13.85      17.74
C       6.45      12.81      17.39
C       5.42      13.02      16.46
C       5.24      14.30      15.90
C       6.13      15.35      16.25
C       7.18      15.13      17.17
C       9.29      14.01      19.35
C      10.04      13.27      20.28
C       9.73      11.91      20.57
C       8.62      11.32      19.93
C       5.58      11.15      18.99
C       5.25       9.82      18.70
C       6.14       9.35      17.75
C       7.01      10.39      17.39
C       6.28       8.07      17.17
C       7.33       7.85      16.26
C       8.22       8.90      15.90
C       8.04      10.18      16.46
C       4.84      11.88      19.93
C       3.73      11.29      20.57
C       3.42       9.93      20.28
C       4.17       9.19      19.35
C       6.73      11.60      18.18
C       9.25       8.67      14.96
C       2.99      12.03      21.53
C       4.20      14.52      14.96
C      10.47      11.18      21.53
C      19.99      10.39      30.05
C      20.98       9.44      29.77
C      -5.06       9.97      28.81
C      -5.52      11.24      28.46
C      -4.83      12.03      27.53
C      -3.63      11.55      26.97
C      -3.17      10.25      27.32
C      -3.88       9.45      28.24
C      20.98       8.19      30.41
C      19.96       7.90      31.34
C      18.94       8.85      31.64
C      18.98      10.11      30.99
C      -6.54      12.83      30.06
C      -7.52      13.78      29.77
C      18.52      13.24      28.81
C      18.99      11.97      28.46
C      17.35      13.76      28.24
C      16.63      12.96      27.32
C      17.09      11.67      26.96
C      18.30      11.18      27.52
C      -5.53      13.10      31.00
C      -5.49      14.36      31.64
C      -6.51      15.31      31.35
C      -7.53      15.02      30.41
C      20.18      11.61      29.25
C      16.38      10.88      26.02
C      -4.49      14.63      32.60
C      -2.92      12.33      26.03
C      17.93       8.58      32.59
C      12.48       0.72       7.92
C      11.17       0.34       7.63
C      -2.24      22.63       6.67
C      -0.90      22.40       6.32
C      -0.56      21.40       5.39
C      -1.58      20.60       4.83
C      -2.93      20.85       5.18
C      -3.27      21.87       6.10
C      10.09       0.96       8.27
C      10.35       1.99       9.21
C      11.68       2.39       9.51
C      12.75       1.73       8.86
C       0.97      22.48       7.92
C       2.29      22.86       7.63
C      15.70       0.58       6.68
C      14.36       0.81       6.33
C      16.73       1.33       6.11
C      16.40       2.35       5.19
C      15.05       2.60       4.83
C      14.02       1.80       5.39
C       0.70      21.47       8.86
C       1.77      20.81       9.51
C       3.10      21.21       9.21
C       3.37      22.24       8.28
C       0.01      23.25       7.12
C      14.73       3.60       3.89
C       1.51      19.80      10.46
C      -1.26      19.59       3.89
C      11.94       3.40      10.46
C      10.82       6.72      11.54
C      11.14       5.34      11.68
C      11.20       4.82      12.99
C      10.53       6.90      13.91
C      10.74       7.45      10.26
C      13.91      10.49      22.61
C      12.55      10.89      22.74
C      12.07      11.11      24.06
C      14.21      10.66      24.98
C      14.59      10.20      21.33
C      15.62       5.94       0.47
C      16.65       6.92       0.60
C      17.08       7.22       1.92
C      15.62       5.59       2.84
C      15.03       5.50      32.39
C       2.63      16.48      11.54
C       2.30      17.85      11.67
C       2.25      18.37      12.99
C       2.93      16.30      13.91
C       2.71      15.74      10.26
C      -0.45      12.71      22.61
C       0.91      12.31      22.74
C       1.39      12.10      24.05
C      -0.75      12.55      24.98
C      -1.12      13.01      21.33
C      -2.17      17.26       0.48
C      -3.19      16.29       0.61
C      -3.61      15.98       1.93
C      -2.15      17.60       2.85
C      -1.58      17.70      32.40
H       2.65       9.46       2.56
H       3.94       8.22       0.95
H       5.65       7.31      32.43
H       7.42       6.92      30.84
H       8.68      10.95      31.23
H       5.10      12.86       1.91
H       4.78      12.25      31.23
H       6.04      16.28      30.84
H       7.81      15.89      32.43
H       8.36      10.34       1.92
H       9.52      14.98       0.95
H      10.81      13.74       2.56
H      -6.54      16.21      13.63
H      -8.25      15.72      12.02
H      17.00      14.68      10.30
H      15.78      13.35       8.70
H      18.64      10.24       9.10
H      -4.81      12.39      12.99
H      -5.18      12.97       9.10
H      -2.32       9.86       8.71
H      -3.54       8.53      10.30
H      18.27      10.82      12.98
H      21.70       7.49      12.01
H      19.98       7.00      13.62
H       3.90      20.78      24.70
H       4.33      22.52      23.08
H      17.71       1.17      21.37
H      17.16       2.89      19.77
H      13.04       1.97      20.16
H      -0.27      21.20      24.04
H       0.42      21.23      20.17
H      -3.69      20.30      19.77
H      -4.25      22.03      21.35
H      13.72       2.00      24.05
H       9.12       0.68      23.07
H       9.55       2.41      24.69
H      11.35       3.83      28.16
H      11.08       6.86      24.41
H      11.36       8.35      25.31
H       9.70       7.76      25.08
H      10.44       4.63      24.95
H       9.93       7.00      30.82
H      11.13      11.47       6.03
H      13.90      10.20       2.28
H      15.05       9.22       3.18
H      15.36      10.95       2.95
H      12.29      11.86       2.82
H      14.59      11.13       8.68
H      17.86       7.85      17.08
H      15.37       6.10      13.34
H      13.94       5.60      14.25
H      15.28       4.46      14.01
H      17.62       6.66      13.88
H      15.84       5.03      19.74
H       2.10      19.37      28.16
H       2.37      16.34      24.41
H       2.09      14.85      25.31
H       3.75      15.44      25.08
H       3.01      18.57      24.95
H       3.52      16.20      30.81
H       2.33      11.73       6.03
H      -0.44      13.00       2.28
H      -1.59      13.99       3.18
H      -1.90      12.26       2.95
H       1.17      11.34       2.82
H      -1.13      12.07       8.68
H      -4.40      15.35      17.10
H      -1.92      17.11      13.35
H      -0.49      17.60      14.25
H      -1.83      18.75      14.02
H      -4.17      16.55      13.89
H      -2.37      18.16      19.75
H       2.65       9.46      20.76
H       3.94       8.22      19.15
H       5.65       7.31      17.43
H       7.42       6.92      15.84
H       8.68      10.95      16.23
H       5.10      12.86      20.11
H       4.78      12.25      16.23
H       6.04      16.28      15.84
H       7.81      15.89      17.43
H       8.36      10.34      20.11
H       9.52      14.98      19.14
H      10.81      13.74      20.76
H      -6.54      16.21      31.83
H      -8.25      15.72      30.21
H      17.00      14.68      28.49
H      15.78      13.35      26.90
H      18.64      10.24      27.30
H      -4.81      12.39      31.18
H      -5.18      12.97      27.30
H      -2.32       9.86      26.90
H      -3.54       8.53      28.50
H      18.27      10.82      31.18
H      21.70       7.49      30.21
H      19.98       7.00      31.82
H       3.90      20.78       9.70
H       4.33      22.52       8.08
H      17.71       1.17       6.37
H      17.16       2.89       4.77
H      13.04       1.97       5.16
H      -0.27      21.20       9.04
H       0.42      21.23       5.17
H      -3.69      20.30       4.77
H      -4.25      22.03       6.35
H      13.72       2.00       9.05
H       9.12       0.68       8.07
H       9.55       2.41       9.69
H      11.35       3.83      13.16
H      11.08       6.86       9.41
H      11.36       8.35      10.31
H       9.70       7.76      10.08
H      10.44       4.63       9.95
H       9.93       7.00      15.82
H      11.13      11.47      24.23
H      13.90      10.20      20.48
H      15.05       9.22      21.38
H      15.36      10.95      21.15
H      12.29      11.86      21.01
H      14.59      11.13      26.88
H      17.86       7.85       2.08
H      15.37       6.10      31.54
H      13.94       5.60      32.45
H      15.28       4.46      32.21
H      17.62       6.66      32.07
H      15.84       5.03       4.74
H       2.10      19.37      13.16
H       2.37      16.34       9.41
H       2.09      14.85      10.31
H       3.75      15.44      10.08
H       3.01      18.57       9.95
H       3.52      16.20      15.81
H       2.33      11.73      24.22
H      -0.44      13.00      20.48
H      -1.59      13.99      21.38
H      -1.90      12.26      21.15
H       1.17      11.34      21.01
H      -1.13      12.07      26.88
H      -4.40      15.35       2.10
H      -1.92      17.11      31.55
H      -0.49      17.60      32.44
H      -1.83      18.75      32.22
H      -4.17      16.55      32.09
H      -2.37      18.16       4.75
N      10.87       5.60      29.05
N      10.51       7.43      27.66
N      11.14       4.49      25.60
N       9.99       7.53      30.00
N      12.91      11.01       6.91
N      14.68      10.42       5.53
N      11.81      11.32       3.47
N      15.02      10.82       7.87
N      16.58       6.55      17.97
N      15.17       5.31      16.59
N      17.38       7.34      14.53
N      15.35       4.81      18.93
N       2.58      17.60      29.04
N       2.95      15.77      27.66
N       2.30      18.70      25.60
N       3.47      15.67      30.00
N       0.55      12.20       6.91
N      -1.22      12.80       5.53
N       1.64      11.88       3.47
N      -1.56      12.39       7.87
N      -3.11      16.65      17.99
N      -1.71      17.88      16.60
N      -3.94      15.87      14.55
N      -1.87      18.38      18.94
N      10.87       5.60      14.05
N      10.51       7.43      12.66
N      11.14       4.49      10.60
N       9.99       7.53      15.00
N      12.91      11.01      25.11
N      14.68      10.42      23.73
N      11.81      11.32      21.67
N      15.02      10.82      26.06
N      16.58       6.55       2.97
N      15.17       5.31       1.59
N      17.38       7.34      32.73
N      15.35       4.81       3.93
N       2.58      17.60      14.04
N       2.95      15.77      12.66
N       2.30      18.70      10.60
N       3.47      15.67      15.00
N       0.55      12.20      25.11
N      -1.22      12.80      23.73
N       1.64      11.88      21.67
N      -1.56      12.39      26.06
N      -3.11      16.65       2.99
N      -1.71      17.88       1.60
N      -3.94      15.87      32.74
N      -1.87      18.38       3.94
O       3.65      12.94       4.09
O       9.33       9.54      28.92
O       4.14      13.67      28.91
O       9.81      10.26       4.09
O      -4.02      13.61      15.16
O      17.09      10.37       6.79
O      -3.63      12.83       6.79
O      17.47       9.60      15.15
O       0.38      19.91      26.22
O      13.95       3.23      17.85
O      -0.46      19.96      17.86
O      13.06       3.29      26.22
O       3.65      12.94      22.28
O       9.33       9.54      13.92
O       4.14      13.67      13.91
O       9.81      10.26      22.28
O      -4.02      13.61       0.16
O      17.09      10.37      24.99
O      -3.63      12.83      24.99
O      17.47       9.60       0.15
O       0.38      19.91      11.22
O      13.95       3.23       2.85
O      -0.46      19.96       2.86
O      13.06       3.29      11.22
