19

H      15.21       3.12      23.99
H      14.36       1.56      24.13
H      13.54       3.05      24.59
H      16.86       3.50      25.63
H      12.37       0.74      27.47
H      12.30       1.81      26.06
H      13.07       0.24      25.91
H      14.06       1.06      29.06
C      14.51       2.54      24.61
C      16.25       2.96      26.36
C      15.03       2.40      26.02
C      15.92       2.12      28.64
C      12.93       1.09      26.59
C      16.70       2.81      27.68
C      14.68       1.56      28.31
C      14.24       1.69      27.00
N      17.83       3.23      28.31
N      17.76       2.83      29.59
N      16.63       2.16      29.81
