69

C       8.93      18.77       0.37
C      14.64      24.05      -3.97
H      11.42      16.53       5.07
H       7.21      12.41      -2.41
H      12.99      22.61      -5.61
H      11.45      13.00      -2.66
H       6.91      14.83      -1.83
H      11.18      15.39      -2.06
H       6.37      19.80      -3.56
H      11.48      19.34      -0.66
H      10.38      20.75      -0.68
H       7.63      18.54       5.08
H      12.57      21.35      -0.81
H       7.86      19.04       2.67
H      10.63      17.09      -0.88
H      10.30      17.55      -2.58
H       7.35      18.78      -1.80
H       8.55      19.31      -3.02
C      10.65      17.07       4.53
H      11.35      20.84      -4.92
C       8.07      13.07      -2.32
C      12.89      22.32      -4.56
C      10.46      13.40      -2.46
H      11.66      16.99       2.62
C       7.90      14.41      -2.00
H      14.18      23.10      -1.52
C       5.33      23.05      -3.81
C      10.30      14.75      -2.13
O      10.33      16.57       7.25
O       8.33      17.61       7.32
O       4.09      25.07      -4.05
C       6.33      20.87      -3.36
C      11.85      20.99      -2.83
O      14.74      24.34      -5.25
O      15.31      24.64      -3.09
C      10.62      19.79      -1.17
O      10.92      20.02      -2.56
C       8.51      18.21       4.54
O      10.02      18.25       1.16
C       9.41      18.85      -1.08
C      13.68      22.97      -3.60
C      12.64      21.62      -1.86
C       8.64      18.48       3.18
C       9.87      17.47      -1.58
O       8.74      16.57      -1.60
C       8.27      19.37      -1.96
O       8.04      20.75      -1.61
C       9.01      15.26      -1.91
C       9.78      18.04       2.50
H       4.79      21.24      -4.84
H       6.12      24.69      -2.66
H       7.79      23.28      -1.44
C      11.98      21.34      -4.19
H       8.64      19.77       0.73
H       8.06      18.10       0.45
C       9.35      17.23       6.69
C      10.79      17.33       3.18
C      13.55      22.60      -2.25
C       9.51      17.51       5.23
C       7.15      21.45      -2.39
O       3.62      23.38      -5.45
C       9.35      12.55      -2.57
C       6.18      23.62      -2.84
O       8.50      10.37      -3.08
C       5.44      21.67      -4.07
C       7.10      22.84      -2.15
O      10.69      10.74      -3.37
C       9.55      11.14      -3.02
C       4.30      23.85      -4.51
