19

C      23.62       0.60      19.43
C      24.18       3.74      21.54
C      23.59       2.79      20.72
C      24.29       1.59      20.35
C      25.57       1.33      20.83
C      22.18       3.02      20.22
N      26.30       4.18      22.85
N      27.41       3.45      23.03
N      27.36       2.31      22.34
C      26.16       2.28      21.69
C      25.48       3.48      22.01
H      23.28       1.08      18.51
H      24.31      -0.22      19.16
H      22.73       0.15      19.90
H      23.66       4.65      21.81
H      26.10       0.41      20.58
H      21.72       3.88      20.73
H      22.16       3.21      19.14
H      21.54       2.14      20.40
