19

H      11.29       6.96      14.37
H      11.72       7.61      15.95
C       8.79      10.25      14.46
H      12.78       7.92      14.56
C       8.82       7.85      15.19
C      10.89      11.40      13.93
C      11.65      10.23      14.17
N       9.07      12.66      13.73
N      10.15      13.39      13.42
N      11.26      12.65      13.53
C       9.49      11.40      14.06
C       9.53       9.10      14.73
C      10.97       9.09      14.58
C      11.73       7.83      14.87
H       7.71      10.25      14.53
H       9.11       7.59      16.22
H       9.07       6.99      14.56
H       7.74       7.99      15.17
H      12.73      10.23      14.05
