19

H      25.49      19.93      17.99
H      24.77      18.65      18.99
H      23.87      19.32      17.62
C      24.79      16.75      16.82
N      28.35      17.25      14.79
N      28.34      16.09      14.11
C      23.47      16.50      17.51
N      27.26      15.36      14.42
C      26.53      16.07      15.33
C      25.30      15.79      15.97
C      26.69      18.26      16.43
C      25.48      17.99      17.05
C      24.87      19.03      17.96
C      27.22      17.28      15.56
H      23.11      15.49      17.31
H      22.69      17.21      17.16
H      23.54      16.63      18.60
H      24.79      14.85      15.78
H      27.22      19.21      16.56
