19

C      25.01      13.39      10.31
H      24.91      14.89       5.94
H      23.34      14.61       6.71
H      24.31      13.24       6.18
H      22.73      12.29       9.72
N      27.05      14.18      11.58
N      28.11      14.91      11.22
N      28.03      15.26       9.93
H      23.12      12.07       8.00
H      22.33      13.55       8.54
C      26.26      14.84       8.16
C      26.24      14.05      10.49
C      26.86      14.75       9.43
C      24.42      13.46       9.06
C      25.04      14.19       7.98
C      24.37      14.24       6.64
C      23.08      12.80       8.82
H      24.56      12.83      11.12
H      26.72      15.42       7.37
