19

H      11.34       2.79       4.11
H      11.78       2.14       2.54
H      12.83       1.83       3.94
C       8.84      -0.50       4.02
C       8.88       1.90       3.30
C      10.94      -1.65       4.56
C      11.69      -0.49       4.31
N       9.12      -2.92       4.74
N      10.20      -3.64       5.06
N      11.31      -2.91       4.95
C       9.54      -1.66       4.42
C       9.58       0.65       3.76
C      11.01       0.66       3.91
C      11.78       1.92       3.62
H       7.76      -0.51       3.95
H       9.17       2.17       2.28
H       9.12       2.76       3.94
H       7.79       1.77       3.31
H      12.77      -0.48       4.44
