19

C      29.65      10.38      22.25
C      28.22      10.39      22.40
C      27.45      11.65      22.10
N      30.12       6.82      23.24
N      29.03       6.10      23.56
N      27.92       6.83      23.45
H      31.48       9.24      22.45
H      30.07      11.89      20.76
H      30.11      12.50      22.42
H      31.45      11.50      21.81
H      26.46       9.25      22.93
H      27.89      12.52      22.61
H      27.47      11.88      21.03
H      26.40      11.56      22.42
C      30.39       9.24      22.52
C      30.36      11.63      21.79
C      28.29       8.09      23.05
C      27.54       9.25      22.80
C      29.70       8.08      22.92
