150

Cd       0.89       3.68       0.82
Cd       5.30      12.46       8.84
Cd       7.93      10.29      18.51
Cd       3.52       1.51      10.49
Cd       0.00       0.00       0.00
Cd       4.41      -2.17       9.67
H       3.15      13.80      18.41
H       4.42      -3.30      18.03
H       3.00      -3.43      16.99
H       7.91       0.58      17.38
H       4.91      -2.87      12.96
H       6.72      -3.63      17.18
H       5.71       1.40      13.36
H       6.65      11.42       0.72
H       7.55      -2.01      10.59
H       0.02      15.08      10.97
H       7.40      15.21      12.00
H       3.50      11.22      11.61
H       0.52      14.65      16.06
H       2.31      15.42      11.83
H       1.37      10.39      15.67
H       2.25       4.72       8.95
H       5.68       0.16       0.92
H       4.40      17.26       1.30
H       5.83      17.39       2.34
H       0.92      13.39       1.95
H       3.91      16.83       6.37
H       2.10      17.59       2.15
H       3.11      12.57       5.97
H       2.17       2.55      18.61
H       1.28      15.98       8.74
H       8.80      -1.12       8.36
H       1.43      -1.24       7.33
H       5.33       2.74       7.72
H       8.30      -0.68       3.27
H       6.52      -1.45       7.50
H       7.45       3.58       3.66
H       6.57       9.24      10.38
C       5.08      -0.68      12.62
C       6.90      -1.37      16.50
C       5.73      -2.21      14.50
C       6.31      -2.44      15.79
C       2.65      -2.43      18.84
C       6.25       0.17      14.68
C       7.55      -1.61      17.81
C       8.01       8.48       1.04
C       3.35      -3.50      18.03
C       6.90      -0.07      15.94
C       5.69      -0.91      13.96
C       0.59       6.35       0.73
C       0.30       7.76       0.41
C       7.72       9.90       0.54
C       0.70      12.47      16.39
C       2.50      13.17      12.51
C       1.34      14.00      14.52
C       1.92      14.24      13.22
C       7.05      14.22      10.15
C       1.88      11.62      14.34
C       3.15      13.41      11.20
C       3.60       7.66       8.64
C       7.75      15.28      10.96
C       2.51      11.86      13.06
C       1.32      12.70      15.06
C       4.99       9.78       8.93
C       4.71       8.37       9.25
C       3.33       6.24       9.12
C       3.74      14.65       6.71
C       1.92      15.34       2.83
C       3.10      16.18       4.83
C       2.51      16.41       3.54
C       6.17      16.39       0.49
C       2.58      13.79       4.65
C       1.28      15.58       1.52
C       0.82       5.49      18.29
C       5.48      17.46       1.30
C       1.92      14.03       3.39
C       3.13      14.87       5.38
C       8.24       7.61      18.60
C       8.52       6.20      18.92
C       1.11       4.07      18.79
C       8.13       1.50       2.94
C       6.32       0.80       6.82
C       7.49      -0.04       4.81
C       6.91      -0.27       6.11
C       1.77      -0.26       9.18
C       6.95       2.35       4.99
C       5.68       0.55       8.13
C       5.23       6.31      10.69
C       1.07      -1.32       8.37
C       6.31       2.10       6.27
C       7.51       1.27       4.27
C       3.83       4.18      10.40
C       4.11       5.59      10.08
C       5.50       7.73      10.21
O       7.41      -2.78      18.33
O       4.94       0.52      12.21
O       8.21      -0.66      18.34
O       4.74      -1.73      11.96
O       1.60       1.56       0.26
O       1.61       5.80       0.12
O       8.67       5.64       1.50
O       7.48       0.96      16.53
O       5.22      15.04      13.86
O       7.31       8.03       1.95
O       6.28      14.62      16.26
O       6.22       1.42      14.24
O       6.68      10.45       1.12
O       3.02      -1.24      18.81
O       3.00      14.58      10.68
O       0.55      11.27      16.80
O       3.81      12.46      10.67
O       0.36      13.52      17.05
O       6.00      14.57       9.43
O       6.03      10.33       9.52
O       4.26      10.50       8.18
O       3.08      10.83      12.46
O       0.82      -3.25      15.16
O       2.88       8.10       7.75
O       1.88      -2.82      12.76
O       1.88      10.37      14.79
O       2.29       5.68       8.54
O       7.43      13.04      10.15
O       1.42      16.75       1.00
O       3.89      13.45       7.12
O       0.62      14.62       0.99
O       4.08      15.70       7.37
O       7.23      12.40      19.07
O       7.22       8.16      19.21
O       0.15       8.33      17.84
O       1.34      13.00       2.80
O       3.60      -1.07       5.47
O       1.52       5.93      17.38
O       2.54      -0.65       3.07
O       2.61      12.54       5.09
O       2.14       3.51      18.21
O       5.81      15.21       0.52
O       5.82      -0.61       8.65
O       8.28       2.69       2.53
O       5.01       1.51       8.66
O       8.47       0.44       2.28
O       2.82      -0.61       9.91
O       2.80       3.64       9.81
O       4.57       3.47      11.15
O       5.74       3.13       6.87
O       8.01      17.22       4.17
O       5.95       5.86      11.58
O       6.95      16.79       6.57
O       6.95       3.59       4.54
O       6.53       8.29      10.80
O       1.40       0.93       9.18
