15

O       6.31       0.94      16.21
O       3.36       2.66      16.56
O       3.71       1.34      14.77
H       3.66       4.90      14.73
H       5.33       6.38      13.63
H       8.28       3.47      13.94
C       6.97       1.60      15.36
C       6.40       2.88      14.82
C       5.06       3.26      15.00
N       6.86       4.97      13.69
C       4.67       4.55      14.58
C       5.59       5.37      13.95
O       8.15       1.27      14.96
C       3.99       2.34      15.51
C       7.25       3.76      14.14
