22

C       9.38       8.21       7.91
C      11.48       8.22       9.13
C      10.28       8.21      11.17
C       9.83       6.48       9.54
C       9.83       9.90       9.54
N       9.21       7.33      10.59
N       8.78       9.07       8.92
H      12.25       7.58       9.59
H      11.95       8.83       8.36
N      10.89       9.07      10.15
N      10.46       7.33       8.48
H      11.05       7.56      11.60
H       9.83       8.83      11.96
H      10.59       5.84      10.01
H       9.38      10.54      10.31
H       7.42       7.58       9.49
H       7.72       8.83      10.72
H       9.07       5.84       9.07
H       8.62       7.56       7.47
H       9.83       8.83       7.12
H      10.28      10.54       8.77
C       8.19       8.22       9.95
