22

C      11.53       1.18       0.42
C      10.35       1.17      -1.63
C       8.24       1.18      -0.42
C       9.42       1.17       1.63
C       9.88      -0.56       0.00
C       9.88       2.86       0.00
N      10.50       0.29       1.06
N      10.94       2.03      -0.61
N       9.27       0.29      -1.06
N       8.83       2.03       0.61
H       7.47       0.54       0.03
H       7.78       1.79      -1.20
H       9.12      -1.20       0.46
H       8.65       0.52       2.06
H       9.86       1.79       2.42
H      10.33       3.50       0.78
H      12.30       0.54      -0.03
H      11.99       1.79       1.20
H      10.65      -1.20      -0.46
H      11.12       0.52      -2.06
H       9.90       1.79      -2.42
H       9.44       3.50      -0.78
