1120

C       2.38       6.13       4.64
C       1.87       6.94       5.67
C       2.25       8.29       5.79
C       3.07       8.87       4.80
C       3.60       8.08       3.75
C       3.27       6.71       3.69
C       2.13       4.73       4.65
C       2.52       3.93       5.75
C       2.57       2.52       5.64
C       2.09       1.91       4.45
C       1.64       2.68       3.34
C       1.69       4.09       3.47
C      14.55      23.52       4.15
C      14.01      22.73       3.12
C      14.35      21.37       3.00
C      15.16      20.76       3.99
C      15.71      21.54       5.04
C      15.41      22.92       5.10
C      14.32      24.93       4.15
C      14.73      25.73       3.04
C      14.79      27.14       3.16
C      14.31      27.75       4.35
C      13.86      26.98       5.46
C      13.90      25.57       5.33
C      16.07       4.06      23.93
C      16.47       3.28      25.03
C      16.11       1.92      25.12
C      15.41       1.31      24.06
C      14.98       2.08      22.95
C      15.32       3.45      22.89
C      16.24       5.47      23.95
C      15.60       6.26      24.94
C      15.46       7.66      24.77
C      16.04       8.27      23.63
C      16.70       7.49      22.65
C      16.82       6.11      22.84
C       3.38      25.35      23.58
C       3.92      26.16      22.56
C       3.59      27.52      22.46
C       2.78      28.11      23.45
C       2.22      27.33      24.49
C       2.51      25.94      24.54
C       3.62      23.94      23.57
C       3.23      23.15      22.46
C       3.20      21.73      22.57
C       3.68      21.13      23.76
C       4.12      21.90      24.87
C       4.06      23.31      24.75
C       9.10      34.38      14.69
C       9.68      35.39      15.47
C       9.69      35.34      16.89
C       8.98      34.27      17.51
C       8.31      33.29      16.73
C       8.41      33.32      15.32
C       9.21      34.43      13.28
C       8.60      35.46      12.52
C       8.56      35.37      11.11
C       9.24      34.30      10.47
C       9.93      33.30      11.21
C       9.85      33.36      12.62
C      21.34      34.08      32.96
C      21.86      33.03      32.18
C      21.79      33.04      30.76
C      21.08      34.11      30.15
C      20.48      35.13      30.93
C      20.64      35.13      32.33
C      21.47      34.04      34.37
C      20.85      33.02      35.14
C      20.81      33.13      36.55
C      21.49      34.20      37.18
C      22.19      35.18      36.43
C      22.11      35.10      35.02
C      20.87      14.87      13.59
C      20.37      15.93      12.82
C      20.49      15.97      11.41
C      21.21      14.90      10.80
C      21.77      13.85      11.56
C      21.58      13.82      12.96
C      20.74      14.88      15.00
C      21.43      15.83      15.79
C      21.49      15.67      17.20
C      20.76      14.61      17.81
C      19.99      13.72      17.03
C      20.04      13.84      15.62
C       9.01      14.50      33.98
C       8.48      13.49      34.80
C       8.54      13.56      36.21
C       9.23      14.66      36.79
C       9.84      15.65      35.98
C       9.70      15.59      34.57
C       8.84      14.44      32.58
C       9.37      13.38      31.80
C       9.34      13.45      30.38
C       8.65      14.53      29.76
C       8.02      15.54      30.53
C       8.18      15.50      31.93
C      24.04      38.34      37.14
C      23.04       0.41      37.55
C      23.41       1.46      38.42
C       0.40       1.67      38.81
C       1.43       0.88      38.21
C       1.05      38.63      37.41
C       2.88       1.13      38.39
C      21.61       0.34      37.14
C      23.72      37.09      36.52
C       0.65       2.54       1.07
C      11.84      30.19      10.48
C      10.85      29.25      10.07
C      11.24      28.20       9.21
C      12.59      28.01       8.83
C      13.59      28.82       9.43
C      13.20      29.91      10.22
C      15.06      28.59       9.26
C       9.42      29.29      10.47
C      11.50      31.42      11.10
C      12.86      27.14       7.73
C      17.72      10.85      17.67
C      18.55       9.70      17.75
C      18.12       8.62      18.55
C      16.88       8.65      19.22
C      16.01       9.76      19.06
C      16.45      10.85      18.27
C      14.69       9.90      19.74
C      19.86       9.55      17.06
C      18.19      12.07      17.12
C      16.70       7.72      20.26
C       6.17      18.70      29.87
C       7.17      19.61      29.42
C       6.78      20.67      28.57
C       5.43      20.89      28.23
C       4.42      20.11      28.86
C       4.81      19.01      29.64
C       2.96      20.37      28.72
C       8.61      19.53      29.79
C       6.50      17.46      30.47
C       5.15      21.76      27.13
C      13.06       9.00      27.32
C      13.82       9.79      28.22
C      13.16      10.77      28.99
C      11.75      10.88      29.06
C      10.99       9.88      28.37
C      11.65       9.03      27.46
C       9.54       9.61      28.61
C      15.28       9.63      28.48
C      13.63       8.15      26.33
C      11.18      11.93      29.84
C       4.31      28.93      19.15
C       3.74      30.23      19.09
C       4.41      31.22      18.32
C       5.61      30.93      17.64
C       6.12      29.60      17.62
C       5.46      28.62      18.40
C       7.30      29.16      16.84
C       2.49      30.64      19.79
C       3.90      28.00      20.12
C       6.29      32.02      17.04
C      17.96      20.72       7.87
C      17.08      20.32       8.92
C      17.56      19.48       9.93
C      18.92      19.10      10.01
C      19.84      19.65       9.07
C      19.34      20.41       8.00
C      21.32      19.50       9.16
C      15.66      20.77       9.04
C      17.51      21.35       6.69
C      19.30      18.13      10.99
C      11.65      38.29      18.16
C      10.78       0.17      19.02
C      11.34       0.99      20.02
C      12.73       1.21      20.12
C      13.58       0.66      19.11
C      13.03      38.59      18.20
C      15.02       1.01      18.94
C       9.29       0.17      18.91
C      11.21      37.26      17.27
C      13.24       1.91      21.24
C      23.47      29.94      29.42
C      22.52      29.31      28.56
C      23.00      28.49      27.52
C       0.03      28.18      27.37
C       0.94      28.63      28.37
C       0.48      29.54      29.34
C       2.36      28.18      28.48
C      21.05      29.42      28.70
C      23.13      30.98      30.34
C       0.46      27.51      26.19
C       6.77      10.56      37.64
C       7.70       9.91      38.51
C       7.20       9.13       0.73
C       5.82       8.87       0.89
C       4.92       9.32      38.73
C       5.40      10.20      37.74
C       3.49       8.91      38.62
C       9.18       9.98      38.36
C       7.14      11.56      36.70
C       5.37       8.23       2.07
C       1.54       9.62       9.14
C       2.08      10.93       9.25
C       1.38      11.87      10.04
C       0.18      11.54      10.70
C      24.04      10.20      10.66
C       0.38       9.26       9.86
C      22.84       9.71      11.40
C       3.32      11.38       8.58
C       1.98       8.73       8.14
C      23.80      12.59      11.32
C      17.05      28.58       0.53
C      16.28      29.43      38.53
C      16.94      30.45      37.82
C      18.35      30.56      37.75
C      19.12      29.53      38.37
C      18.46      28.63       0.39
C      20.56      29.26      38.11
C      14.82      29.28      38.28
C      16.49      27.68       1.50
C      18.93      31.65      37.02
C      12.48      18.08      36.86
C      11.95      19.40      36.88
C      12.56      20.36      37.71
C      13.70      20.04      38.49
C      14.29      18.76      38.38
C      13.67      17.79      37.57
C      15.53      18.35       0.26
C      10.77      19.85      36.09
C      11.82      17.00      36.23
C      14.07      20.96       0.64
C      17.76      37.46      30.06
C      18.20      38.81      30.12
C      17.54       0.93      29.34
C      16.45       0.58      28.51
C      15.94      38.10      28.53
C      16.60      37.14      29.31
C      14.76      37.66      27.74
C      19.34       0.38      30.99
C      18.46      36.40      30.68
C      16.11       1.48      27.49
C       4.83       1.07       8.27
C       4.06       0.23       9.12
C       4.71      38.07       9.85
C       6.12      37.96       9.92
C       6.89       0.13       9.29
C       6.24       1.02       8.41
C       8.34       0.39       9.55
C       2.60       0.40       9.38
C       4.27       1.97       7.29
C       6.70      36.87      10.65
C      23.98      18.20      18.41
C      23.21      19.23      19.02
C      23.87      20.16      19.86
C       0.94      20.22      19.98
C       1.71      19.37      19.14
C       1.05      18.32      18.45
C       3.16      19.54      18.85
C      21.76      19.47      18.79
C      23.41      17.10      17.69
C       1.51      21.15      20.92
C      12.38       6.13       4.64
C      11.87       6.94       5.67
C      12.25       8.29       5.79
C      13.07       8.87       4.80
C      13.60       8.08       3.75
C      13.27       6.71       3.69
C      12.13       4.73       4.65
C      12.52       3.93       5.75
C      12.57       2.52       5.64
C      12.09       1.91       4.45
C      11.64       2.68       3.34
C      11.69       4.09       3.47
C       0.20      23.52       4.15
C      24.01      22.73       3.12
C       0.01      21.37       3.00
C       0.81      20.76       3.99
C       1.37      21.54       5.04
C       1.07      22.92       5.10
C      24.32      24.93       4.15
C       0.38      25.73       3.04
C       0.44      27.14       3.16
C      24.31      27.75       4.35
C      23.86      26.98       5.46
C      23.90      25.57       5.33
C       1.72       4.06      23.93
C       2.12       3.28      25.03
C       1.77       1.92      25.12
C       1.07       1.31      24.06
C       0.64       2.08      22.95
C       0.97       3.45      22.89
C       1.90       5.47      23.95
C       1.25       6.26      24.94
C       1.12       7.66      24.77
C       1.70       8.27      23.63
C       2.36       7.49      22.65
C       2.48       6.11      22.84
C      13.38      25.35      23.58
C      13.92      26.16      22.56
C      13.59      27.52      22.46
C      12.78      28.11      23.45
C      12.22      27.33      24.49
C      12.51      25.94      24.54
C      13.62      23.94      23.57
C      13.23      23.15      22.46
C      13.20      21.73      22.57
C      13.68      21.13      23.76
C      14.12      21.90      24.87
C      14.06      23.31      24.75
C      19.10      34.38      14.69
C      19.68      35.39      15.47
C      19.69      35.34      16.89
C      18.98      34.27      17.51
C      18.31      33.29      16.73
C      18.41      33.32      15.32
C      19.21      34.43      13.28
C      18.60      35.46      12.52
C      18.56      35.37      11.11
C      19.24      34.30      10.47
C      19.93      33.30      11.21
C      19.85      33.36      12.62
C       7.00      34.08      32.96
C       7.52      33.03      32.18
C       7.45      33.04      30.76
C       6.74      34.11      30.15
C       6.14      35.13      30.93
C       6.30      35.13      32.33
C       7.13      34.04      34.37
C       6.51      33.02      35.14
C       6.47      33.13      36.55
C       7.15      34.20      37.18
C       7.84      35.18      36.43
C       7.77      35.10      35.02
C       6.53      14.87      13.59
C       6.03      15.93      12.82
C       6.15      15.97      11.41
C       6.87      14.90      10.80
C       7.43      13.85      11.56
C       7.24      13.82      12.96
C       6.40      14.88      15.00
C       7.09      15.83      15.79
C       7.15      15.67      17.20
C       6.41      14.61      17.81
C       5.64      13.72      17.03
C       5.69      13.84      15.62
C      19.01      14.50      33.98
C      18.48      13.49      34.80
C      18.54      13.56      36.21
C      19.23      14.66      36.79
C      19.84      15.65      35.98
C      19.70      15.59      34.57
C      18.84      14.44      32.58
C      19.37      13.38      31.80
C      19.34      13.45      30.38
C      18.65      14.53      29.76
C      18.02      15.54      30.53
C      18.18      15.50      31.93
C       9.70      38.34      37.14
C       8.70       0.41      37.55
C       9.06       1.46      38.42
C      10.40       1.67      38.81
C      11.43       0.88      38.21
C      11.05      38.63      37.41
C      12.88       1.13      38.39
C       7.27       0.34      37.14
C       9.38      37.09      36.52
C      10.65       2.54       1.07
C      21.84      30.19      10.48
C      20.85      29.25      10.07
C      21.24      28.20       9.21
C      22.59      28.01       8.83
C      23.59      28.82       9.43
C      23.20      29.91      10.22
C       0.72      28.59       9.26
C      19.42      29.29      10.47
C      21.50      31.42      11.10
C      22.86      27.14       7.73
C       3.38      10.85      17.67
C       4.21       9.70      17.75
C       3.78       8.62      18.55
C       2.54       8.65      19.22
C       1.67       9.76      19.06
C       2.10      10.85      18.27
C       0.35       9.90      19.74
C       5.52       9.55      17.06
C       3.85      12.07      17.12
C       2.36       7.72      20.26
C      16.17      18.70      29.87
C      17.17      19.61      29.42
C      16.78      20.67      28.57
C      15.43      20.89      28.23
C      14.42      20.11      28.86
C      14.81      19.01      29.64
C      12.96      20.37      28.72
C      18.61      19.53      29.79
C      16.50      17.46      30.47
C      15.15      21.76      27.13
C      23.06       9.00      27.32
C      23.82       9.79      28.22
C      23.16      10.77      28.99
C      21.75      10.88      29.06
C      20.99       9.88      28.37
C      21.65       9.03      27.46
C      19.54       9.61      28.61
C       0.94       9.63      28.48
C      23.63       8.15      26.33
C      21.18      11.93      29.84
C      14.31      28.93      19.15
C      13.74      30.23      19.09
C      14.41      31.22      18.32
C      15.61      30.93      17.64
C      16.12      29.60      17.62
C      15.46      28.62      18.40
C      17.30      29.16      16.84
C      12.49      30.64      19.79
C      13.90      28.00      20.12
C      16.29      32.02      17.04
C       3.62      20.72       7.87
C       2.73      20.32       8.92
C       3.22      19.48       9.93
C       4.58      19.10      10.01
C       5.50      19.65       9.07
C       5.00      20.41       8.00
C       6.98      19.50       9.16
C       1.31      20.77       9.04
C       3.16      21.35       6.69
C       4.95      18.13      10.99
C      21.65      38.29      18.16
C      20.78       0.17      19.02
C      21.34       0.99      20.02
C      22.73       1.21      20.12
C      23.58       0.66      19.11
C      23.03      38.59      18.20
C       0.68       1.01      18.94
C      19.29       0.17      18.91
C      21.21      37.26      17.27
C      23.24       1.91      21.24
C       9.13      29.94      29.42
C       8.18      29.31      28.56
C       8.66      28.49      27.52
C      10.03      28.18      27.37
C      10.94      28.63      28.37
C      10.48      29.54      29.34
C      12.36      28.18      28.48
C       6.70      29.42      28.70
C       8.78      30.98      30.34
C      10.46      27.51      26.19
C      16.77      10.56      37.64
C      17.70       9.91      38.51
C      17.20       9.13       0.73
C      15.82       8.87       0.89
C      14.92       9.32      38.73
C      15.40      10.20      37.74
C      13.49       8.91      38.62
C      19.18       9.98      38.36
C      17.14      11.56      36.70
C      15.37       8.23       2.07
C      11.54       9.62       9.14
C      12.08      10.93       9.25
C      11.38      11.87      10.04
C      10.18      11.54      10.70
C       9.69      10.20      10.66
C      10.38       9.26       9.86
C       8.50       9.71      11.40
C      13.32      11.38       8.58
C      11.98       8.73       8.14
C       9.46      12.59      11.32
C       2.71      28.58       0.53
C       1.94      29.43      38.53
C       2.60      30.45      37.82
C       4.01      30.56      37.75
C       4.77      29.53      38.37
C       4.12      28.63       0.39
C       6.22      29.26      38.11
C       0.48      29.28      38.28
C       2.15      27.68       1.50
C       4.59      31.65      37.02
C      22.48      18.08      36.86
C      21.95      19.40      36.88
C      22.56      20.36      37.71
C      23.70      20.04      38.49
C      24.29      18.76      38.38
C      23.67      17.79      37.57
C       1.19      18.35       0.26
C      20.77      19.85      36.09
C      21.82      17.00      36.23
C      24.07      20.96       0.64
C       3.41      37.46      30.06
C       3.86      38.81      30.12
C       3.19       0.93      29.34
C       2.10       0.58      28.51
C       1.59      38.10      28.53
C       2.26      37.14      29.31
C       0.41      37.66      27.74
C       5.00       0.38      30.99
C       4.11      36.40      30.68
C       1.77       1.48      27.49
C      14.83       1.07       8.27
C      14.06       0.23       9.12
C      14.71      38.07       9.85
C      16.12      37.96       9.92
C      16.89       0.13       9.29
C      16.24       1.02       8.41
C      18.34       0.39       9.55
C      12.60       0.40       9.38
C      14.27       1.97       7.29
C      16.70      36.87      10.65
C       9.64      18.20      18.41
C       8.87      19.23      19.02
C       9.53      20.16      19.86
C      10.94      20.22      19.98
C      11.71      19.37      19.14
C      11.05      18.32      18.45
C      13.16      19.54      18.85
C       7.42      19.47      18.79
C       9.06      17.10      17.69
C      11.51      21.15      20.92
H       1.22       6.54       6.36
H       1.48       4.67       2.66
H       4.38       5.32       3.02
H       3.64       5.05       6.84
H       2.74      10.71       4.48
H       1.24       0.22       4.57
H       1.65       1.14       2.07
H       2.69       0.86       6.76
H       3.93       9.56       2.46
H       1.46       9.94       6.62
H      13.37      23.14       2.43
H      13.68      24.99       6.14
H      16.57      24.28       5.77
H      15.83      24.59       1.95
H      14.78      18.94       4.32
H      13.48      29.44       4.23
H      13.86      28.53       6.73
H      14.92      28.80       2.04
H      16.01      20.06       6.35
H      13.55      19.73       2.16
H      17.00       3.71      25.79
H      17.27       5.54      22.11
H      14.28       4.81      22.04
H      14.40       5.09      25.88
H      15.78      38.32      23.78
H      16.64      10.06      23.77
H      17.64       8.91      21.60
H      15.16       9.34      25.82
H      14.69       0.57      21.66
H      16.85       0.30      26.03
H       4.56      25.75      21.87
H       4.27      23.89      25.56
H       1.36      24.58      25.19
H       2.12      24.27      21.38
H       3.17      29.93      23.81
H       4.55      19.45      23.65
H       4.11      20.37      26.16
H       3.10      20.07      21.46
H       1.94      28.81      25.80
H       4.43      29.16      21.68
H      10.09      36.19      14.99
H      10.23      32.60      13.18
H       7.12      32.68      14.08
H       7.37      36.30      13.72
H       8.08      34.62      19.14
H       8.41      33.81       8.84
H      10.11      31.94       9.75
H       8.31      36.55       9.50
H       8.03      31.79      18.05
H       9.98      36.38      18.58
H      22.28      32.24      32.67
H      22.49      35.86      34.45
H      19.41      35.83      33.61
H      19.60      32.18      33.96
H      20.08      33.73      28.59
H      20.65      34.71      38.80
H      22.35      36.56      37.88
H      20.55      31.95      38.17
H      20.14      36.58      29.58
H      21.99      31.98      29.06
H      19.92      16.69      13.33
H      19.59      13.13      15.04
H      22.79      13.08      14.24
H      22.71      16.64      14.62
H      22.25      15.33       9.28
H      21.58      14.00      19.39
H      19.78      12.22      18.35
H      21.80      16.79      18.85
H      22.11      12.39      10.22
H      20.21      16.95       9.69
H       8.07      12.68      34.34
H       7.83      16.28      32.50
H      10.94      16.24      33.27
H      10.64      12.53      32.95
H      10.20      14.37      38.39
H       9.41      14.98      28.09
H       7.81      16.90      29.07
H       9.52      12.27      28.76
H      10.09      17.17      37.27
H       8.33      12.56      37.94
H      22.66       2.05      38.81
H       1.79      38.00      37.08
H       3.10       2.06       0.07
H       3.37       1.19      37.42
H       3.33       0.31       0.11
H      21.43      38.47      36.34
H      21.29       1.32      36.76
H      20.99       0.08      37.99
H      10.51      27.60       8.81
H      13.92      30.56      10.56
H      15.29      27.65       8.75
H      15.54      28.54      10.24
H      15.50      29.41       8.70
H       9.22      30.01      11.27
H       9.11      28.31      10.85
H       8.80      29.55       9.62
H      18.75       7.82      18.69
H      15.86      11.69      18.22
H      14.41       9.02      20.32
H      13.91      10.06      18.99
H      14.71      10.75      20.41
H      20.07      10.36      16.36
H      19.88       8.62      16.49
H      20.67       9.52      17.80
H       7.51      21.25      28.15
H       4.08      18.38      30.00
H       2.74      21.30      28.20
H       2.50      20.44      29.71
H       2.48      19.55      28.17
H       8.81      18.81      30.58
H       8.95      20.50      30.15
H       9.20      19.26      28.91
H      13.74      11.41      29.55
H      11.07       8.40      26.90
H       9.19      10.01      29.56
H       8.94      10.02      27.79
H       9.36       8.53      28.66
H      15.67       8.68      28.11
H      15.84      10.44      28.02
H      15.48       9.63      29.56
H       4.04      32.17      18.33
H       5.86      27.68      18.46
H       7.68      29.92      16.15
H       8.11      28.87      17.51
H       7.03      28.29      16.23
H       1.99      29.81      20.28
H       2.73      31.39      20.55
H       1.79      31.06      19.07
H      16.90      19.12      10.63
H      19.99      20.74       7.27
H      21.65      19.04      10.09
H      21.68      18.88       8.33
H      21.80      20.48       9.10
H      15.40      21.58       8.35
H      14.99      19.92       8.84
H      15.47      21.14      10.05
H      10.71       1.44      20.70
H      13.67      38.13      17.54
H      15.33       1.87      19.54
H      15.21       1.28      17.89
H      15.65       0.16      19.20
H       8.93      38.56      17.99
H       8.91       1.20      18.91
H       8.86      38.49      19.77
H      22.33      28.12      26.83
H       1.17      29.94      29.99
H       2.59      27.33      27.83
H       2.56      27.85      29.50
H       3.03      29.00      28.24
H      20.74      29.89      29.64
H      20.59      28.43      28.69
H      20.64      30.00      27.87
H       7.87       8.75       1.41
H       4.73      10.61      37.09
H       3.24       8.08       0.44
H       3.27       8.58      37.61
H       2.85       9.76       0.01
H       9.50      10.42      37.42
H       9.61       8.97      38.40
H       9.61      10.57       0.33
H       1.73      12.84      10.08
H      24.34       8.32       9.76
H      22.43      10.44      12.09
H      22.06       9.42      10.70
H      23.12       8.83      12.00
H       3.85      10.58       8.06
H       3.08      12.16       7.85
H       4.01      11.80       9.32
H      16.36      31.12      37.29
H      19.04      27.96       0.91
H      20.92      29.74      37.20
H      21.16      29.62       0.11
H      20.74      28.19      37.99
H      14.44      28.31      38.59
H      14.27      30.07      38.79
H      14.61      29.35      37.20
H      12.14      21.29      37.80
H      14.05      16.84      37.54
H      16.01      19.17       0.79
H      16.26      17.96      38.39
H      15.30      17.56       0.98
H      10.42      19.10      35.38
H      11.03      20.74      35.51
H       9.94      20.09      36.76
H      17.91       1.88      29.30
H      16.28      36.16      29.28
H      14.25      38.48      27.23
H      14.02      37.19      28.40
H      15.07      36.93      26.99
H      19.17       0.06      32.01
H      19.47       1.47      31.00
H      20.27      38.79      30.63
H       4.13      37.41      10.38
H       6.83       1.68       7.89
H       8.69      38.76      10.46
H       8.93       0.04       8.70
H       8.52       1.46       9.67
H       2.22       1.37       9.06
H       2.04      38.46       8.87
H       2.39       0.33      10.45
H      23.29      20.82      20.38
H       1.63      17.66      17.92
H       3.54      20.52      19.15
H       3.35      19.45      17.78
H       3.73      18.76      19.37
H      21.41      19.00      17.87
H      21.56      20.54      18.68
H      21.18      19.10      19.63
H      11.22       6.54       6.36
H      11.48       4.67       2.66
H      14.38       5.32       3.02
H      13.64       5.05       6.84
H      12.74      10.71       4.48
H      11.24       0.22       4.57
H      11.65       1.14       2.07
H      12.69       0.86       6.76
H      13.93       9.56       2.46
H      11.46       9.94       6.62
H      23.37      23.14       2.43
H      23.68      24.99       6.14
H       2.23      24.28       5.77
H       1.48      24.59       1.95
H       0.44      18.94       4.32
H      23.48      29.44       4.23
H      23.86      28.53       6.73
H       0.57      28.80       2.04
H       1.66      20.06       6.35
H      23.55      19.73       2.16
H       2.66       3.71      25.79
H       2.93       5.54      22.11
H      24.28       4.81      22.04
H       0.06       5.09      25.88
H       1.43      38.32      23.78
H       2.30      10.06      23.77
H       3.30       8.91      21.60
H       0.82       9.34      25.82
H       0.34       0.57      21.66
H       2.51       0.30      26.03
H      14.56      25.75      21.87
H      14.27      23.89      25.56
H      11.36      24.58      25.19
H      12.12      24.27      21.38
H      13.17      29.93      23.81
H      14.55      19.45      23.65
H      14.11      20.37      26.16
H      13.10      20.07      21.46
H      11.94      28.81      25.80
H      14.43      29.16      21.68
H      20.09      36.19      14.99
H      20.23      32.60      13.18
H      17.12      32.68      14.08
H      17.37      36.30      13.72
H      18.08      34.62      19.14
H      18.41      33.81       8.84
H      20.11      31.94       9.75
H      18.31      36.55       9.50
H      18.03      31.79      18.05
H      19.98      36.38      18.58
H       7.94      32.24      32.67
H       8.15      35.86      34.45
H       5.06      35.83      33.61
H       5.25      32.18      33.96
H       5.74      33.73      28.59
H       6.31      34.71      38.80
H       8.01      36.56      37.88
H       6.21      31.95      38.17
H       5.80      36.58      29.58
H       7.65      31.98      29.06
H       5.58      16.69      13.33
H       5.24      13.13      15.04
H       8.45      13.08      14.24
H       8.37      16.64      14.62
H       7.91      15.33       9.28
H       7.24      14.00      19.39
H       5.44      12.22      18.35
H       7.45      16.79      18.85
H       7.77      12.39      10.22
H       5.87      16.95       9.69
H      18.07      12.68      34.34
H      17.83      16.28      32.50
H      20.94      16.24      33.27
H      20.64      12.53      32.95
H      20.20      14.37      38.39
H      19.41      14.98      28.09
H      17.81      16.90      29.07
H      19.52      12.27      28.76
H      20.09      17.17      37.27
H      18.33      12.56      37.94
H       8.32       2.05      38.81
H      11.79      38.00      37.08
H      13.10       2.06       0.07
H      13.37       1.19      37.42
H      13.33       0.31       0.11
H       7.09      38.47      36.34
H       6.94       1.32      36.76
H       6.64       0.08      37.99
H      20.51      27.60       8.81
H      23.92      30.56      10.56
H       0.94      27.65       8.75
H       1.19      28.54      10.24
H       1.16      29.41       8.70
H      19.22      30.01      11.27
H      19.11      28.31      10.85
H      18.80      29.55       9.62
H       4.41       7.82      18.69
H       1.52      11.69      18.22
H       0.07       9.02      20.32
H      23.91      10.06      18.99
H       0.37      10.75      20.41
H       5.73      10.36      16.36
H       5.54       8.62      16.49
H       6.32       9.52      17.80
H      17.51      21.25      28.15
H      14.08      18.38      30.00
H      12.74      21.30      28.20
H      12.50      20.44      29.71
H      12.48      19.55      28.17
H      18.81      18.81      30.58
H      18.95      20.50      30.15
H      19.20      19.26      28.91
H      23.74      11.41      29.55
H      21.07       8.40      26.90
H      19.19      10.01      29.56
H      18.94      10.02      27.79
H      19.36       8.53      28.66
H       1.33       8.68      28.11
H       1.49      10.44      28.02
H       1.14       9.63      29.56
H      14.04      32.17      18.33
H      15.86      27.68      18.46
H      17.68      29.92      16.15
H      18.11      28.87      17.51
H      17.03      28.29      16.23
H      11.99      29.81      20.28
H      12.73      31.39      20.55
H      11.79      31.06      19.07
H       2.56      19.12      10.63
H       5.65      20.74       7.27
H       7.31      19.04      10.09
H       7.34      18.88       8.33
H       7.46      20.48       9.10
H       1.06      21.58       8.35
H       0.65      19.92       8.84
H       1.12      21.14      10.05
H      20.71       1.44      20.70
H      23.67      38.13      17.54
H       0.99       1.87      19.54
H       0.87       1.28      17.89
H       1.30       0.16      19.20
H      18.93      38.56      17.99
H      18.91       1.20      18.91
H      18.86      38.49      19.77
H       7.98      28.12      26.83
H      11.17      29.94      29.99
H      12.59      27.33      27.83
H      12.56      27.85      29.50
H      13.03      29.00      28.24
H       6.40      29.89      29.64
H       6.25      28.43      28.69
H       6.30      30.00      27.87
H      17.87       8.75       1.41
H      14.73      10.61      37.09
H      13.24       8.08       0.44
H      13.27       8.58      37.61
H      12.85       9.76       0.01
H      19.50      10.42      37.42
H      19.61       8.97      38.40
H      19.61      10.57       0.33
H      11.73      12.84      10.08
H      10.00       8.32       9.76
H       8.09      10.44      12.09
H       7.72       9.42      10.70
H       8.77       8.83      12.00
H      13.85      10.58       8.06
H      13.08      12.16       7.85
H      14.01      11.80       9.32
H       2.02      31.12      37.29
H       4.70      27.96       0.91
H       6.57      29.74      37.20
H       6.81      29.62       0.11
H       6.40      28.19      37.99
H       0.09      28.31      38.59
H      24.27      30.07      38.79
H       0.27      29.35      37.20
H      22.14      21.29      37.80
H      24.05      16.84      37.54
H       1.66      19.17       0.79
H       1.92      17.96      38.39
H       0.95      17.56       0.98
H      20.42      19.10      35.38
H      21.03      20.74      35.51
H      19.94      20.09      36.76
H       3.57       1.88      29.30
H       1.93      36.16      29.28
H      24.25      38.48      27.23
H      24.02      37.19      28.40
H       0.73      36.93      26.99
H       4.83       0.06      32.01
H       5.13       1.47      31.00
H       5.93      38.79      30.63
H      14.13      37.41      10.38
H      16.83       1.68       7.89
H      18.69      38.76      10.46
H      18.93       0.04       8.70
H      18.52       1.46       9.67
H      12.22       1.37       9.06
H      12.04      38.46       8.87
H      12.39       0.33      10.45
H       8.95      20.82      20.38
H      11.63      17.66      17.92
H      13.54      20.52      19.15
H      13.35      19.45      17.78
H      13.73      18.76      19.37
H       7.06      19.00      17.87
H       7.22      20.54      18.68
H       6.84      19.10      19.63
N       1.34       2.06       2.15
N       3.10       1.73       6.64
N       4.30       8.71       2.75
N       1.80       9.05       6.83
N      13.55      27.61       6.65
N      15.32      27.92       2.16
N      16.40      20.90       6.03
N      13.89      20.63       1.95
N      17.15       8.07      21.50
N      14.80       8.45      25.69
N      14.33       1.44      21.92
N      16.46       1.18      26.21
N       4.43      21.28      26.06
N       2.69      20.94      21.57
N       1.55      27.97      25.50
N       4.08      28.28      21.44
N      10.51      32.22      10.60
N       7.90      36.31      10.35
N       7.59      32.30      17.34
N      10.27      36.33      17.65
N      22.75      36.28      37.03
N      20.14      32.19      37.32
N      19.74      36.11      30.34
N      22.29      32.00      29.99
N      19.34      12.65      17.59
N      22.19      16.55      17.99
N      22.52      12.87      10.97
N      20.01      17.01      10.64
N       7.44      16.64      29.93
N       9.95      12.49      29.61
N      10.53      16.68      36.55
N       8.02      12.56      37.02
N      11.34       2.06       2.15
N      13.10       1.73       6.64
N      14.30       8.71       2.75
N      11.80       9.05       6.83
N      23.55      27.61       6.65
N       0.97      27.92       2.16
N       2.06      20.90       6.03
N      23.89      20.63       1.95
N       2.80       8.07      21.50
N       0.46       8.45      25.69
N      24.33       1.44      21.92
N       2.12       1.18      26.21
N      14.43      21.28      26.06
N      12.69      20.94      21.57
N      11.55      27.97      25.50
N      14.08      28.28      21.44
N      20.51      32.22      10.60
N      17.90      36.31      10.35
N      17.59      32.30      17.34
N      20.27      36.33      17.65
N       8.41      36.28      37.03
N       5.80      32.19      37.32
N       5.40      36.11      30.34
N       7.95      32.00      29.99
N       5.00      12.65      17.59
N       7.85      16.55      17.99
N       8.17      12.87      10.97
N       5.67      17.01      10.64
N      17.44      16.64      29.93
N      19.95      12.49      29.61
N      20.53      16.68      36.55
N      18.02      12.56      37.02
O       3.45      10.18       4.92
O       2.14       0.55       4.35
O       3.73       5.96       2.65
O       2.83       4.50       6.96
O      15.49      19.45       3.87
O      14.38      29.11       4.45
O      15.90      23.66       6.14
O      15.03      25.16       1.84
O      15.04       0.00      24.16
O      15.85       9.60      23.40
O      14.97       4.16      21.77
O      15.16       5.68      26.10
O       2.45      29.43      23.36
O       3.64      19.77      23.86
O       2.03      25.19      25.57
O       2.93      23.72      21.26
O       8.92      34.19      18.87
O       9.26      34.23       9.10
O       7.87      32.30      14.59
O       8.12      36.57      13.15
O      20.94      34.16      28.80
O      21.50      34.28      38.54
O      20.15      36.18      33.06
O      20.35      31.91      34.53
O      21.40      14.87       9.45
O      20.76      14.47      19.16
O      22.05      12.76      13.68
O      21.98      16.94      15.20
O       9.34      14.78      38.14
O       8.57      14.58      28.40
O      10.20      16.60      33.81
O       9.87      12.26      32.41
O      24.24       3.66       1.16
O       0.22      36.62      35.57
O      12.12      26.01       7.64
O      12.33      31.90      12.06
O      15.78       6.75      20.07
O      17.37      12.76      16.29
O       5.91      22.87      27.00
O       5.69      17.00      31.47
O      11.98      12.57      30.73
O      12.88       7.15      25.81
O       5.56      32.89      16.30
O       3.36      26.83      19.69
O      18.69      18.26      12.19
O      18.30      22.27       6.09
O      12.49       2.89      21.79
O      11.95      37.05      16.16
O      24.00      26.59      25.62
O      23.89      31.08      31.46
O       6.15       7.28       2.65
O       6.37      11.67      35.59
O       0.15      13.43      12.13
O       2.48       7.53       8.54
O      18.15      32.30      36.12
O      17.28      26.69       1.97
O      14.61      22.13       0.25
O      12.56      16.16      35.47
O      15.53       2.66      27.83
O      17.74      35.56      31.47
O       5.92      36.23      11.56
O       5.08       2.94       6.80
O       0.70      22.14      21.39
O      24.17      16.46      16.77
O      13.45      10.18       4.92
O      12.14       0.55       4.35
O      13.73       5.96       2.65
O      12.83       4.50       6.96
O       1.15      19.45       3.87
O       0.04      29.11       4.45
O       1.56      23.66       6.14
O       0.68      25.16       1.84
O       0.69       0.00      24.16
O       1.51       9.60      23.40
O       0.63       4.16      21.77
O       0.82       5.68      26.10
O      12.45      29.43      23.36
O      13.64      19.77      23.86
O      12.03      25.19      25.57
O      12.93      23.72      21.26
O      18.92      34.19      18.87
O      19.26      34.23       9.10
O      17.87      32.30      14.59
O      18.12      36.57      13.15
O       6.60      34.16      28.80
O       7.16      34.28      38.54
O       5.81      36.18      33.06
O       6.01      31.91      34.53
O       7.05      14.87       9.45
O       6.41      14.47      19.16
O       7.70      12.76      13.68
O       7.63      16.94      15.20
O      19.34      14.78      38.14
O      18.57      14.58      28.40
O      20.20      16.60      33.81
O      19.87      12.26      32.41
O       9.90       3.66       1.16
O      10.22      36.62      35.57
O      22.12      26.01       7.64
O      22.33      31.90      12.06
O       1.44       6.75      20.07
O       3.03      12.76      16.29
O      15.91      22.87      27.00
O      15.69      17.00      31.47
O      21.98      12.57      30.73
O      22.88       7.15      25.81
O      15.56      32.89      16.30
O      13.36      26.83      19.69
O       4.35      18.26      12.19
O       3.96      22.27       6.09
O      22.49       2.89      21.79
O      21.95      37.05      16.16
O       9.65      26.59      25.62
O       9.55      31.08      31.46
O      16.15       7.28       2.65
O      16.37      11.67      35.59
O      10.15      13.43      12.13
O      12.48       7.53       8.54
O       3.81      32.30      36.12
O       2.94      26.69       1.97
O       0.27      22.13       0.25
O      22.56      16.16      35.47
O       1.19       2.66      27.83
O       3.40      35.56      31.47
O      15.92      36.23      11.56
O      15.08       2.94       6.80
O      10.70      22.14      21.39
O       9.83      16.46      16.77
