24

C       0.45       5.46      13.11
C       0.29       6.67      12.17
C      -0.47       7.89      12.63
C      -1.82       8.06      12.29
C      -2.48       9.25      12.61
C      -1.77      10.25      13.25
C       0.17       8.95      13.29
N      -0.47      10.11      13.59
P      -1.20       4.92      13.93
P       1.04       3.98      12.01
O      -2.25       5.03      12.83
O      -1.00       3.49      14.49
O      -1.40       5.98      15.02
O       2.11       4.65      11.13
O      -0.19       3.50      11.23
O       1.64       2.93      12.95
O       1.40       5.77      14.08
H       1.43       5.07      14.80
H      -0.19       6.32      11.25
H       1.32       6.96      11.89
H      -2.34       7.27      11.75
H      -3.51       9.42      12.32
H      -2.23      11.21      13.49
H       1.22       8.88      13.57
