24

P       1.20       3.09      17.03
P      -1.04       4.02      18.96
N       0.47      -2.10      17.38
H      -1.43       2.93      16.17
O       2.25       2.98      18.14
O       1.00       4.52      16.48
O       1.40       2.03      15.94
O      -2.11       3.36      19.84
O       0.19       4.51      19.74
O      -1.64       5.07      18.02
O      -1.40       2.24      16.89
H       0.19       1.69      19.72
H      -1.32       1.04      19.07
H       2.34       0.74      19.22
H       3.51      -1.41      18.65
H       2.23      -3.21      17.48
H      -1.22      -0.88      17.40
C      -0.45       2.54      17.85
C      -0.29       1.33      18.80
C       0.47       0.11      18.33
C       1.82      -0.06      18.68
C       2.48      -1.24      18.36
C       1.77      -2.25      17.71
C      -0.17      -0.94      17.67
