25

C       5.94       2.90       8.37
C       5.22       2.59       7.04
C       5.05       1.15       6.67
C       6.12       0.34       6.29
C       5.90      -0.98       5.89
C       4.60      -1.47       5.86
C       3.77       0.61       6.61
N       3.58      -0.66       6.21
P       5.74       4.78       8.58
P       5.29       1.90       9.83
O       6.66       5.25       9.72
O       6.14       5.40       7.24
O       4.23       5.04       8.85
O       5.94       2.49      11.11
O       3.75       2.05       9.85
O       5.68       0.45       9.58
O       7.32       2.57       8.38
H       7.86       3.03       7.67
H       2.55      -1.01       6.11
H       5.79       3.08       6.23
H       4.23       3.08       7.04
H       7.14       0.74       6.30
H       6.74      -1.62       5.61
H       4.35      -2.48       5.55
H       2.87       1.18       6.86
