108

Mn       0.00       0.00       0.00
Mn       4.75       0.00       0.00
Mn       3.25       6.14      11.23
Mn       8.00      12.64       2.03
H       7.37       7.29      11.78
H       8.92      11.50       9.77
H       1.12       9.83      10.55
H       7.00      14.86      12.85
H       9.31      16.68       9.71
H       8.48      14.91       8.16
H       8.63       5.23      10.33
H       7.07       5.72       5.69
H       5.37       5.54       7.53
H       8.99       1.69       3.55
H       6.68       4.04       0.79
H       7.52       6.10       1.94
H       3.87      11.48       1.48
H       2.32       7.27       3.49
H      10.12       8.95       2.71
H       4.24       3.91       0.41
H       1.93       2.09       3.55
H       2.77       3.87       5.10
H       2.62      13.54       2.93
H       4.17      13.05       7.57
H       5.87      13.23       5.73
H       2.25      17.08       9.71
H       4.56      14.73      12.48
H       3.73      12.68      11.32
C      10.08       7.36      11.59
C       9.11       8.42      11.20
C       7.73       8.21      11.33
C       7.26      10.22      10.32
C       8.61      10.56      10.20
C       9.55       9.63      10.64
C       7.32      13.94       9.74
C       7.35      14.89      11.82
C       8.22      15.91      11.40
C       8.63      15.91      10.06
C       8.16      14.93       9.20
C       8.73      16.89      12.38
C       5.91       5.39      10.19
C       6.88       5.40       9.07
C       8.26       5.35       9.31
C       8.73       5.63       7.08
C       7.38       5.63       6.72
C       6.44       5.52       7.74
C       8.68       4.93       3.38
C       8.65       2.66       3.18
C       7.78       2.71       2.08
C       7.36       3.97       1.63
C       7.83       5.11       2.27
C       7.26       1.46       1.48
C       1.16      11.41       1.67
C       2.13      10.35       2.06
C       3.51      10.56       1.93
C       3.98       8.56       2.94
C       2.63       8.22       3.06
C       1.69       9.14       2.62
C       3.93       4.83       3.52
C       3.89       3.89       1.44
C       3.03       2.87       1.86
C       2.61       2.86       3.20
C       3.08       3.84       4.06
C       2.51       1.88       0.88
C       5.33      13.38       3.07
C       4.36      13.37       4.19
C       2.98      13.42       3.95
C       2.51      13.14       6.18
C       3.86      13.15       6.54
C       4.80      13.25       5.52
C       2.57      13.84       9.88
C       2.60      16.12      10.08
C       3.46      16.06      11.18
C       3.88      14.81      11.63
C       3.41      13.67      11.00
C       3.98      17.31      11.78
S       5.91      11.22       9.74
S       6.79      12.66       8.60
S      10.09       5.84       5.94
S       9.20       6.44       4.21
S       5.33       7.55       3.52
S       4.45       6.12       4.66
S       1.16      12.93       7.32
S       2.04      12.34       9.05
N       6.81       9.09      10.89
N       6.92      13.91      11.01
N       9.18       5.47       8.34
N       9.07       3.74       3.84
N       4.43       9.69       2.37
N       4.32       4.87       2.25
N       2.06      13.30       4.92
N       2.17      15.03       9.42
O       9.64       6.36      12.23
O       1.80       7.52      11.21
O       7.11      12.39       0.18
O       9.84      17.45      12.18
O       6.35       5.12      11.36
O       4.69       5.70       9.92
O       8.88      14.47       1.64
O       6.15       1.46       0.88
O       1.60      12.41       1.03
O       9.44      11.25       2.05
O       4.13       6.38      13.09
O       1.40       1.32       1.08
O       4.89      13.65       1.91
O       6.55      13.08       3.34
O       2.36       4.31      11.62
O       5.09      17.31      12.38
