25

Zn      28.07      17.48      11.49
Zn      27.30      20.78      10.78
Zn      27.93      24.32      11.29
C      29.85      26.42      12.02
C      25.92      23.19      10.05
C      29.77      22.21      10.06
C      27.01      25.07      13.54
N      28.91      26.15      11.08
N      28.02      15.39      11.55
O      27.76      18.01      13.43
O      26.24      19.66       9.56
O      30.03      17.56      10.98
O      28.07      19.93      12.35
O      26.24      17.69      10.70
O      28.93      21.26       9.83
O      26.26      22.44      11.06
O      26.63      24.20       9.72
O      28.06      24.33      13.29
O      29.56      23.25      10.76
C      27.80      19.28      13.43
C      29.96      17.51       9.69
C      27.32      14.67      10.66
C      28.56      27.13      10.23
C      25.79      18.48       9.80
C      28.81      14.73      12.43
