14

C      10.21      31.14      13.19
C      12.67      34.56      10.62
C      10.25      34.59      13.12
C      12.49      31.03      10.50
Cu      12.40      32.78      12.74
O      13.19      34.06      11.67
O      11.35      34.12      13.53
O      13.01      31.43      11.60
O      11.35      31.53      13.59
Cu      10.45      32.87      10.96
O      11.54      34.17      10.20
O       9.72      31.59      12.10
O       9.74      34.17      12.04
O      11.41      31.56      10.10
