14

C      19.43       1.75      23.37
C      21.67      -1.65      20.54
C      19.49      -1.87      23.16
C      21.79       1.75      20.69
Cu      19.56       0.10      21.13
Cu      21.56      -0.05      22.82
O      18.90       1.40      22.27
O      20.52      -1.21      20.22
O      18.87      -1.22      22.26
O      20.64       1.38      20.32
O      22.31       1.25      21.74
O      20.68      -1.56      23.47
O      22.26      -1.24      21.58
O      20.50       1.19      23.76
