14

C       1.78      20.07      10.97
Cu       0.04      20.24      13.14
Cu       0.03      22.23      11.40
O       1.31      22.94      12.51
C       1.76      22.44      13.58
O      -1.27      19.57      11.98
O      -1.25      21.24      14.01
O       1.35      19.53      12.04
O       1.35      21.30      13.96
C      -1.72      20.12      10.93
O      -1.28      21.24      10.54
C      -1.69      22.36      13.63
O       1.33      21.18      10.57
O      -1.26      22.89      12.56
