178

Ba       6.05       5.29       8.69
Ba       1.77       3.78       9.99
P      -0.60       3.77       6.30
P       3.98       7.63      10.38
P      -0.75       9.04       7.70
P      -0.26       5.30      12.38
P      -0.16       0.01      11.27
P       3.72       7.05       5.28
P       3.92       1.22       8.35
P       3.82       2.31      13.53
H       3.93       9.73       6.87
H      -0.54       9.58      12.77
H      -1.09       9.78      11.06
H      -2.09       8.86      12.25
H       0.90       1.63       6.32
H      -0.07       0.94       3.98
H       7.81      -0.40       4.83
H       0.88      -0.34       4.86
H       3.39       6.67      13.59
H       2.28       6.90      12.17
H       3.54      11.22       4.92
H       3.08       8.96      14.28
H       1.53       8.05      14.23
H       1.92       9.19      12.88
H       2.39       8.87       6.42
H       2.13      11.24       6.07
H       2.62       0.49       5.78
H       4.14      -0.41       4.23
H       2.06      10.28       4.53
H       6.02       8.66       3.42
H       1.07       1.16      13.54
H      -0.63       1.24      13.70
H       1.30       0.43      15.71
H      -0.39       0.81      15.89
H       3.14      -1.22      15.58
H       2.01      -1.66      14.22
H       6.54       8.09       5.63
H       3.57      -2.45      14.41
H      -0.11       4.88      15.40
H       5.73       1.62      15.71
H       1.78       7.86       3.15
H      -0.61       4.23       3.27
H       1.58       5.63       6.67
H       4.87       2.56      17.30
H       4.55       4.77       2.37
H      -0.52       8.22       4.86
H       6.59       5.85       3.05
H       2.81       6.95       1.61
H       4.05       8.28       0.07
H       3.22       4.28      16.39
H       1.16       3.13      15.76
H       2.83      -1.34       8.07
H       5.13      10.29      10.75
H       6.15       1.34      10.21
H       1.53       7.60       8.86
H       5.86      10.20       4.34
H       0.68       8.09      11.18
H      -0.87       7.35      10.71
H       6.38      -0.23       6.52
H       4.34       4.41       5.63
H       4.59       0.65       0.94
H       5.85       2.08       4.44
H       5.54       9.60      15.11
H       5.52      -1.49      15.67
H       2.74       0.27      11.73
H       5.92       6.58      12.89
H       2.86       4.25       0.59
H       6.15      10.62       1.37
C       2.71      10.63       5.35
C       3.26       9.43       6.03
C       3.47       1.15       5.57
C       4.11       0.68       4.20
C       0.21       0.53      13.82
C       0.30       0.15      15.34
C       3.67      -0.39      13.66
C       3.06      -1.49      14.51
C      -0.90       4.23      15.05
C      -1.29       4.39      13.70
C       6.11       2.52      15.28
C      -1.41       8.79       5.19
C       5.46       2.99      14.13
C       1.45       6.93       3.58
C       2.00       6.57       4.81
C       0.01       4.99       3.71
C       0.25       4.94       5.11
C       7.17       3.24      15.89
C       6.10       3.96      13.38
C       0.52       6.09       2.92
C       1.27       5.73       5.64
C       5.41       2.13      18.12
C       6.58       9.44       3.99
C       4.82       5.28       0.31
C       5.21       5.20       1.63
C       6.42       5.75       2.01
C       7.39       6.14       1.05
C       6.76       2.43      18.39
C       0.06       6.37       1.46
C       0.94       6.88       0.44
C       0.33       3.11      17.76
C      -1.04       2.92      17.36
C       2.28       7.25       0.72
C      -0.32       7.82      11.55
C       2.89       3.98      18.47
C       2.53       3.95      17.14
C       1.32       3.37      16.79
C       5.97       0.28      10.07
C       1.78       8.65       8.95
C       1.16      10.96       8.53
C       0.86       9.59       8.46
C       2.97       9.04       9.58
C       3.24      10.47       9.72
C       4.65      -1.56       9.17
C      -1.06       9.09      11.92
C       4.87      -0.13       9.33
C       6.93      -0.64      10.53
C       6.73      -2.02      10.36
C      -0.05       1.17       6.10
C      -0.02       0.29       4.87
C       3.01       7.38      12.83
C       2.34       8.47      13.61
C       5.52       1.15       4.00
C       3.20      -0.54      12.25
C       3.38       0.73      18.55
S       8.24       0.21       7.49
S       2.97       2.84       5.42
S       3.28       1.02       2.63
S      -0.06      -1.53      15.92
S       5.42      -0.61      13.72
S       5.28       4.72      12.06
S      -1.00      10.23       2.84
O       6.55       4.22       6.10
O       4.10       7.91      12.12
O      -1.02       9.78       6.12
O       1.27       4.85      12.59
O      -0.85       5.07      10.93
O       3.60       2.40      11.78
O      -0.18       7.02      12.70
O       4.38       2.93       8.67
O       0.09       1.77      11.11
O       0.98      -0.63      10.44
O       0.12      -0.56      12.93
O      -0.01       4.00       7.75
O       3.44       6.14      10.02
O       2.35       1.18       8.70
O       4.40       0.98       6.63
O       2.77       3.31      14.05
O       3.26       0.82      14.27
O       4.21       6.67       6.91
O       4.76       6.41       4.36
O       7.62       2.11       5.96
O       4.01       8.74       5.08
O       5.47       7.89       9.98
O      -0.96       7.30       7.57
O      -1.93       9.56       8.54
O       0.65      -0.77       7.75
O      -0.55       1.20       8.61
O       6.82      -0.64       7.30
O       1.86       2.91       4.42
O       2.50       3.35       6.75
O       4.22       3.80       4.88
O       1.82       0.69       2.67
O       3.45       2.46       2.25
O       3.98       0.05       1.44
O       6.24       0.58       3.21
O       1.16      -2.17      16.51
O       7.61      -1.44      17.03
O       8.04      -2.51      14.69
O       5.84      -1.89      13.07
O       6.05       0.52      12.98
O       5.86      -0.63      15.32
O       3.32      -1.61      11.68
O       5.56       3.86      10.87
O       3.81       4.83      12.24
O       5.88       6.25      11.95
O       3.11       0.67      17.36
O      -0.02      11.06       3.60
O      -0.26       9.22       2.03
O      -1.89      11.22       1.82
