992

H      10.68       2.38       5.50
H       1.57       2.40       4.70
H       4.67       2.34       8.33
H       6.99       2.23       8.53
H       5.26       2.28       1.67
H       7.59       2.39       1.87
H      10.68       2.02       2.90
H       2.86       2.72       1.68
H       1.48       2.16       7.24
H       9.40       2.71       8.52
H      17.59       2.49      24.55
H      26.70       2.29      23.69
H      23.63       2.39      27.34
H      21.30       2.55      27.56
H      23.00       2.55      20.68
H      20.67       2.50      20.90
H      17.50       2.74      22.00
H      25.38       2.03      20.68
H      26.79       2.55      26.24
H      18.91       2.14      27.56
H       1.75      18.50      23.27
H      10.84      18.66      24.27
H       7.82      18.48      20.58
H       5.50      18.34      20.32
H       7.09      18.48      27.22
H       4.76      18.56      26.97
H       1.63      18.26      25.83
H       9.47      18.95      27.27
H      10.96      18.36      21.71
H       3.12      18.80      20.27
H      26.90      18.47       4.40
H      17.79      18.42       5.21
H      20.88      18.51       1.58
H      23.20      18.61       1.37
H      21.48      18.58       8.24
H      23.81      18.49       8.03
H      26.93      18.83       6.97
H      19.10      18.09       8.24
H      17.73      18.74       2.65
H      25.60      18.10       1.38
H      30.04      14.95      14.00
H      30.29       5.84      14.66
H      30.45       8.98      11.08
H      30.28      11.30      10.90
H      30.31       9.49      17.75
H      30.43      11.83      17.56
H      29.83      14.87      16.54
H      30.73       7.11      17.68
H      29.91       5.88      12.11
H      29.08      13.16      11.01
H      30.33      21.92      32.82
H      30.25      31.04      33.58
H      30.16      27.93      29.96
H      30.30      25.60      29.77
H      30.39      27.36      36.63
H      30.28      25.03      36.43
H      30.87      22.22      35.63
H      29.83      29.72      36.58
H      30.60      31.03      31.02
H      29.90      23.19      29.81
H      13.93       5.95      34.06
H      14.39      15.04      33.20
H      14.44      11.97      36.85
H      14.23       9.66      37.08
H      14.17      11.32      30.19
H      14.21       8.99      30.43
H      13.60       6.12      31.30
H      14.70      13.65      30.18
H      13.87      14.78      36.04
H      13.11       7.76      37.05
H      14.23      31.11      14.94
H      14.29      21.98      14.25
H      14.25      25.12      17.84
H      14.35      27.45      18.02
H      14.35      25.64      11.17
H      14.22      27.97      11.35
H      14.76      30.81      12.13
H      13.85      23.28      11.23
H      14.79      22.29      17.08
H      13.84      29.82      17.97
H       1.64      31.69      35.98
H      31.79       0.15       2.35
H      26.74       5.19      17.01
H      28.68       4.53      21.39
H      10.86      15.80      30.93
H      12.78      16.42      26.53
H      17.77      21.25      11.91
H      15.82      20.62       7.52
H      12.48      20.82      21.29
H      10.54      21.49      16.90
H      28.58      16.34       7.34
H      26.81      15.98      11.84
H      15.71       4.82      26.93
H      17.78       5.30      31.28
H       1.85      15.66      16.57
H      32.02      16.21      20.94
H      26.66      21.27      35.63
H      28.78      20.78       1.96
H      10.54      31.69      12.21
H      12.58       0.04       7.85
H      12.39       4.53       2.70
H      10.76       5.01      36.15
H      28.32       0.16      26.65
H      26.41      31.51      31.02
H      17.82      31.71      17.23
H      15.94       0.33      21.62
H       1.85      21.61      30.53
H      32.13      20.52      26.20
H      32.13       4.55       7.71
H       1.94       5.31      12.07
H      18.11      15.59      35.86
H      16.18      16.25       2.26
H      10.68      17.38       5.50
H       1.57      17.40       4.70
H       4.67      17.34       8.33
H       6.99      17.23       8.53
H       5.26      17.28       1.67
H       7.59      17.39       1.87
H      10.68      17.02       2.90
H       2.86      17.72       1.68
H       1.48      17.16       7.24
H       9.40      17.71       8.52
H      17.59      17.49      24.55
H      26.70      17.29      23.69
H      23.63      17.39      27.34
H      21.30      17.55      27.56
H      23.00      17.55      20.68
H      20.67      17.50      20.90
H      17.50      17.74      22.00
H      25.38      17.03      20.68
H      26.79      17.55      26.24
H      18.91      17.14      27.56
H       1.75       1.34      23.27
H      10.84       1.50      24.27
H       7.82       1.32      20.58
H       5.50       1.17      20.32
H       7.09       1.32      27.22
H       4.76       1.39      26.97
H       1.63       1.10      25.83
H       9.47       1.79      27.27
H      10.96       1.19      21.71
H       3.12       1.64      20.27
H      26.90       1.31       4.40
H      17.79       1.26       5.21
H      20.88       1.35       1.58
H      23.20       1.45       1.37
H      21.48       1.42       8.24
H      23.81       1.33       8.03
H      26.93       1.67       6.97
H      19.10       0.92       8.24
H      17.73       1.57       2.65
H      25.60       0.94       1.38
H      30.04      29.95      14.00
H      30.29      20.84      14.66
H      30.45      23.98      11.08
H      30.28      26.30      10.90
H      30.31      24.49      17.75
H      30.43      26.83      17.56
H      29.83      29.87      16.54
H      30.73      22.11      17.68
H      29.91      20.88      12.11
H      29.08      28.16      11.01
H      30.33       4.75      32.82
H      30.25      13.88      33.58
H      30.16      10.77      29.96
H      30.30       8.43      29.77
H      30.39      10.20      36.63
H      30.28       7.86      36.43
H      30.87       5.05      35.63
H      29.83      12.56      36.58
H      30.60      13.87      31.02
H      29.90       6.02      29.81
H      13.93      20.95      34.06
H      14.39      30.04      33.20
H      14.44      26.97      36.85
H      14.23      24.66      37.08
H      14.17      26.32      30.19
H      14.21      23.99      30.43
H      13.60      21.12      31.30
H      14.70      28.65      30.18
H      13.87      29.78      36.04
H      13.11      22.76      37.05
H      14.23      13.95      14.94
H      14.29       4.82      14.25
H      14.25       7.95      17.84
H      14.35      10.29      18.02
H      14.35       8.48      11.17
H      14.22      10.81      11.35
H      14.76      13.64      12.13
H      13.85       6.12      11.23
H      14.79       5.12      17.08
H      13.84      12.66      17.97
H       1.64      14.53      35.98
H      31.79      15.15       2.35
H      26.74      20.19      17.01
H      28.68      19.53      21.39
H      10.86      30.80      30.93
H      12.78      31.42      26.53
H      17.77       4.09      11.91
H      15.82       3.46       7.52
H      12.48       3.66      21.29
H      10.54       4.33      16.90
H      28.58      31.34       7.34
H      26.81      30.98      11.84
H      15.71      19.82      26.93
H      17.78      20.30      31.28
H       1.85      30.66      16.57
H      32.02      31.21      20.94
H      26.66       4.11      35.63
H      28.78       3.61       1.96
H      10.54      14.52      12.21
H      12.58      15.04       7.85
H      12.39      19.53       2.70
H      10.76      20.01      36.15
H      28.32      15.16      26.65
H      26.41      14.35      31.02
H      17.82      14.54      17.23
H      15.94      15.33      21.62
H       1.85       4.45      30.53
H      32.13       3.36      26.20
H      32.13      19.55       7.71
H       1.94      20.31      12.07
H      18.11      30.59      35.86
H      16.18      31.25       2.26
C       6.84       2.39       5.16
C       7.45       2.32       6.45
C       8.87       2.25       6.57
C       9.66       2.37       5.41
C       9.08       2.50       4.12
C       7.66       2.44       4.00
C       6.61       2.29       7.59
C       7.03       2.41       2.73
C       5.41       2.39       5.04
C       4.58       2.44       6.21
C       3.17       2.51       6.08
C       2.59       2.39       4.80
C       3.38       2.27       3.63
C       4.80       2.34       3.75
C       5.21       2.37       7.47
C       5.64       2.32       2.61
C       9.96       2.69       3.06
C       2.72       2.07       2.42
C       2.29       2.74       7.14
C       9.53       2.05       7.78
C      21.43       2.43      24.19
C      20.83       2.50      25.48
C      19.41       2.59      25.61
C      18.62       2.49      24.45
C      19.18       2.36      23.16
C      20.60       2.40      23.03
C      21.68       2.49      26.61
C      21.22       2.45      21.76
C      22.86       2.39      24.06
C      23.69       2.32      25.22
C      25.11       2.21      25.08
C      25.68       2.33      23.79
C      24.89       2.48      22.63
C      23.47       2.45      22.76
C      23.07       2.38      26.48
C      22.62       2.50      21.63
C      18.30       2.15      22.11
C      25.54       2.67      21.42
C      25.99       1.97      26.14
C      18.76       2.79      26.83
C       5.58      18.54      23.69
C       5.00      18.45      22.39
C       3.58      18.36      22.24
C       2.77      18.50      23.39
C       3.31      18.65      24.68
C       4.73      18.60      24.84
C       5.87      18.42      21.27
C       5.33      18.58      26.12
C       7.01      18.57      23.85
C       7.86      18.61      22.70
C       9.27      18.71      22.86
C       9.82      18.62      24.15
C       9.01      18.50      25.30
C       7.59      18.54      25.15
C       7.26      18.52      21.42
C       6.72      18.52      26.27
C       2.41      18.87      25.72
C       9.65      18.32      26.53
C      10.16      18.94      21.81
C       2.95      18.16      21.01
C      23.06      18.46       4.74
C      23.66      18.52       3.45
C      25.08      18.59       3.33
C      25.88      18.48       4.49
C      25.30      18.36       5.78
C      23.88      18.42       5.91
C      22.82      18.55       2.32
C      23.26      18.46       7.17
C      21.63      18.45       4.87
C      20.80      18.42       3.71
C      19.38      18.34       3.83
C      18.81      18.44       5.12
C      19.60      18.56       6.28
C      21.02      18.50       6.16
C      21.43      18.48       2.44
C      21.86      18.53       7.30
C      26.18      18.18       6.84
C      18.94      18.73       7.50
C      18.51      18.13       2.77
C      25.74      18.77       2.11
C      30.32      11.12      14.26
C      30.19      11.74      12.98
C      29.97      13.15      12.88
C      30.14      13.93      14.06
C      30.39      13.35      15.32
C      30.38      11.93      15.44
C      30.27      10.90      11.84
C      30.41      11.28      16.69
C      30.35       9.68      14.38
C      30.40       8.87      13.20
C      30.44       7.45      13.31
C      30.30       6.86      14.59
C      30.21       7.64      15.76
C      30.30       9.06      15.66
C      30.40       9.52      11.95
C      30.33       9.89      16.80
C      30.54      14.19      16.42
C      30.05       6.97      16.97
C      30.58       6.61      12.21
C      29.43      13.75      11.73
C      30.26      25.76      33.14
C      30.30      25.15      31.85
C      30.39      23.73      31.74
C      30.31      22.94      32.90
C      30.21      23.52      34.18
C      30.24      24.94      34.31
C      30.28      25.99      30.71
C      30.27      25.57      35.57
C      30.25      27.19      33.26
C      30.18      28.01      32.09
C      30.13      29.43      32.22
C      30.26      30.02      33.50
C      30.38      29.23      34.66
C      30.32      27.81      34.55
C      30.19      27.38      30.83
C      30.34      26.97      35.69
C      30.07      22.67      35.26
C      30.51      29.89      35.88
C      29.95      30.28      31.13
C      30.57      23.07      30.52
C      14.19       9.77      33.71
C      14.08       9.17      35.01
C      13.87       7.76      35.14
C      14.00       6.97      33.98
C      14.20       7.52      32.70
C      14.21       8.94      32.55
C      14.21      10.03      36.13
C      14.23       9.55      31.28
C      14.26      11.20      33.57
C      14.35      12.03      34.72
C      14.45      13.45      34.58
C      14.35      14.02      33.30
C      14.22      13.22      32.14
C      14.23      11.80      32.27
C      14.36      11.42      35.99
C      14.19      10.94      31.14
C      14.37       6.65      31.64
C      14.08      13.88      30.92
C      14.65      14.31      35.65
C      13.52       7.16      36.37
C      14.26      27.26      14.65
C      14.30      27.89      15.94
C      14.35      29.31      16.04
C      14.25      30.08      14.87
C      14.15      29.49      13.59
C      14.21      28.07      13.48
C      14.31      27.05      17.08
C      14.23      27.43      12.22
C      14.27      25.83      14.54
C      14.24      25.02      15.71
C      14.19      23.60      15.60
C      14.30      23.01      14.33
C      14.39      23.78      13.15
C      14.32      25.20      13.25
C      14.25      25.66      16.97
C      14.31      26.04      12.11
C      13.97      30.34      12.51
C      14.51      23.11      11.94
C      14.01      22.75      16.68
C      14.50      29.98      17.25
C       1.34       0.55       1.19
C       1.93       0.36      37.90
C       1.20      31.84      36.89
C      32.07      31.32      37.13
C      31.47      31.53       0.41
C       0.05       0.04       1.42
C      26.98       4.16      20.20
C      26.42       4.35      18.91
C      27.17       5.03      17.93
C      28.46       5.54      18.18
C      29.03       5.32      19.47
C      28.27       4.65      20.46
C      11.10      16.83      27.74
C      10.55      16.65      29.03
C      11.29      15.95      30.01
C      12.56      15.40      29.74
C      13.13      15.61      28.46
C      12.38      16.31      27.47
C      17.51      20.22       8.72
C      18.08      20.40      10.00
C      17.34      21.10      10.99
C      16.05      21.63      10.73
C      15.48      21.42       9.45
C      16.22      20.73       8.46
C      12.28      21.80      18.07
C      12.84      21.60      19.36
C      12.09      20.92      20.35
C      10.79      20.44      20.08
C      10.22      20.65      18.81
C      10.97      21.32      17.81
C      28.50      15.61      10.63
C      29.02      15.72       9.32
C      28.21      16.29       8.30
C      26.90      16.74       8.56
C      26.38      16.62       9.88
C      27.20      16.08      10.90
C      16.04       5.72      30.16
C      15.43       5.58      28.88
C      16.13       4.88      27.86
C      17.41       4.32      28.08
C      18.01       4.47      29.36
C      17.32       5.17      30.37
C       1.55      16.65      19.77
C       2.13      16.49      18.49
C       1.41      15.80      17.48
C       0.12      15.28      17.71
C      31.70      15.45      18.99
C       0.27      16.12      20.01
C      27.07      20.29       0.84
C      26.45      20.44      37.56
C      27.13      21.13      36.53
C      28.42      21.68      36.72
C      29.04      21.53       0.01
C      28.35      20.84       1.04
C      10.88       0.52       9.02
C      10.29       0.35      10.29
C      11.00      31.83      11.30
C      12.28      31.29      11.08
C      12.87      31.44       9.80
C      12.16      32.13       8.79
C      12.42       5.34      37.42
C      12.90       5.18       0.75
C      12.06       4.61       1.74
C      10.75       4.19       1.42
C      10.27       4.34       0.10
C      11.12       4.89      37.10
C      28.15      31.27      29.85
C      28.71      31.52      28.57
C      27.93       0.03      27.59
C      26.61       0.46      27.86
C      26.05       0.21      29.13
C      26.83      31.70      30.11
C      17.64       0.63      20.40
C      18.18       0.40      19.12
C      17.40      31.89      18.15
C      16.10      31.41      18.43
C      15.55      31.67      19.71
C      16.33       0.19      20.68
C       1.71      20.40      27.40
C       2.25      20.72      28.66
C       1.44      21.37      29.62
C       0.10      21.73      29.35
C      31.71      21.38      28.09
C       0.36      20.73      27.12
C       0.19       5.58      10.91
C      31.77       5.35       9.64
C       0.36       4.67       8.64
C       1.68       4.23       8.89
C       2.26       4.46      10.16
C       1.50       5.13      11.16
C      17.87      16.62       1.06
C      18.43      16.42      37.76
C      17.68      15.75      36.77
C      16.38      15.26      37.03
C      15.81      15.47       0.33
C      16.56      16.15       1.32
C       6.84      17.39       5.16
C       7.45      17.32       6.45
C       8.87      17.25       6.57
C       9.66      17.37       5.41
C       9.08      17.50       4.12
C       7.66      17.44       4.00
C       6.61      17.29       7.59
C       7.03      17.41       2.73
C       5.41      17.39       5.04
C       4.58      17.44       6.21
C       3.17      17.51       6.08
C       2.59      17.39       4.80
C       3.38      17.27       3.63
C       4.80      17.34       3.75
C       5.21      17.37       7.47
C       5.64      17.32       2.61
C       9.96      17.69       3.06
C       2.72      17.07       2.42
C       2.29      17.74       7.14
C       9.53      17.05       7.78
C      21.43      17.43      24.19
C      20.83      17.50      25.48
C      19.41      17.59      25.61
C      18.62      17.49      24.45
C      19.18      17.36      23.16
C      20.60      17.40      23.03
C      21.68      17.49      26.61
C      21.22      17.45      21.76
C      22.86      17.39      24.06
C      23.69      17.32      25.22
C      25.11      17.21      25.08
C      25.68      17.33      23.79
C      24.89      17.48      22.63
C      23.47      17.45      22.76
C      23.07      17.38      26.48
C      22.62      17.50      21.63
C      18.30      17.15      22.11
C      25.54      17.67      21.42
C      25.99      16.97      26.14
C      18.76      17.79      26.83
C       5.58       1.38      23.69
C       5.00       1.29      22.39
C       3.58       1.20      22.24
C       2.77       1.33      23.39
C       3.31       1.48      24.68
C       4.73       1.44      24.84
C       5.87       1.25      21.27
C       5.33       1.42      26.12
C       7.01       1.41      23.85
C       7.86       1.45      22.70
C       9.27       1.55      22.86
C       9.82       1.46      24.15
C       9.01       1.34      25.30
C       7.59       1.38      25.15
C       7.26       1.36      21.42
C       6.72       1.36      26.27
C       2.41       1.71      25.72
C       9.65       1.16      26.53
C      10.16       1.78      21.81
C       2.95       1.00      21.01
C      23.06       1.30       4.74
C      23.66       1.36       3.45
C      25.08       1.42       3.33
C      25.88       1.31       4.49
C      25.30       1.20       5.78
C      23.88       1.26       5.91
C      22.82       1.39       2.32
C      23.26       1.30       7.17
C      21.63       1.29       4.87
C      20.80       1.25       3.71
C      19.38       1.18       3.83
C      18.81       1.28       5.12
C      19.60       1.39       6.28
C      21.02       1.34       6.16
C      21.43       1.31       2.44
C      21.86       1.37       7.30
C      26.18       1.02       6.84
C      18.94       1.57       7.50
C      18.51       0.97       2.77
C      25.74       1.60       2.11
C      30.32      26.12      14.26
C      30.19      26.74      12.98
C      29.97      28.15      12.88
C      30.14      28.93      14.06
C      30.39      28.35      15.32
C      30.38      26.93      15.44
C      30.27      25.90      11.84
C      30.41      26.28      16.69
C      30.35      24.68      14.38
C      30.40      23.87      13.20
C      30.44      22.45      13.31
C      30.30      21.86      14.59
C      30.21      22.64      15.76
C      30.30      24.06      15.66
C      30.40      24.52      11.95
C      30.33      24.89      16.80
C      30.54      29.19      16.42
C      30.05      21.97      16.97
C      30.58      21.61      12.21
C      29.43      28.75      11.73
C      30.26       8.60      33.14
C      30.30       7.99      31.85
C      30.39       6.57      31.74
C      30.31       5.78      32.90
C      30.21       6.36      34.18
C      30.24       7.78      34.31
C      30.28       8.83      30.71
C      30.27       8.41      35.57
C      30.25      10.03      33.26
C      30.18      10.85      32.09
C      30.13      12.27      32.22
C      30.26      12.85      33.50
C      30.38      12.07      34.66
C      30.32      10.65      34.55
C      30.19      10.22      30.83
C      30.34       9.81      35.69
C      30.07       5.50      35.26
C      30.51      12.73      35.88
C      29.95      13.11      31.13
C      30.57       5.91      30.52
C      14.19      24.77      33.71
C      14.08      24.17      35.01
C      13.87      22.76      35.14
C      14.00      21.97      33.98
C      14.20      22.52      32.70
C      14.21      23.94      32.55
C      14.21      25.03      36.13
C      14.23      24.55      31.28
C      14.26      26.20      33.57
C      14.35      27.03      34.72
C      14.45      28.45      34.58
C      14.35      29.02      33.30
C      14.22      28.22      32.14
C      14.23      26.80      32.27
C      14.36      26.42      35.99
C      14.19      25.94      31.14
C      14.37      21.65      31.64
C      14.08      28.88      30.92
C      14.65      29.31      35.65
C      13.52      22.16      36.37
C      14.26      10.10      14.65
C      14.30      10.72      15.94
C      14.35      12.14      16.04
C      14.25      12.92      14.87
C      14.15      12.33      13.59
C      14.21      10.91      13.48
C      14.31       9.89      17.08
C      14.23      10.27      12.22
C      14.27       8.67      14.54
C      14.24       7.86      15.71
C      14.19       6.44      15.60
C      14.30       5.84      14.33
C      14.39       6.62      13.15
C      14.32       8.04      13.25
C      14.25       8.50      16.97
C      14.31       8.87      12.11
C      13.97      13.17      12.51
C      14.51       5.95      11.94
C      14.01       5.59      16.68
C      14.50      12.82      17.25
C       1.34      15.55       1.19
C       1.93      15.36      37.90
C       1.20      14.68      36.89
C      32.07      14.16      37.13
C      31.47      14.37       0.41
C       0.05      15.04       1.42
C      26.98      19.16      20.20
C      26.42      19.35      18.91
C      27.17      20.03      17.93
C      28.46      20.54      18.18
C      29.03      20.32      19.47
C      28.27      19.65      20.46
C      11.10      31.83      27.74
C      10.55      31.65      29.03
C      11.29      30.95      30.01
C      12.56      30.40      29.74
C      13.13      30.61      28.46
C      12.38      31.31      27.47
C      17.51       3.06       8.72
C      18.08       3.24      10.00
C      17.34       3.93      10.99
C      16.05       4.47      10.73
C      15.48       4.25       9.45
C      16.22       3.57       8.46
C      12.28       4.64      18.07
C      12.84       4.44      19.36
C      12.09       3.76      20.35
C      10.79       3.28      20.08
C      10.22       3.49      18.81
C      10.97       4.16      17.81
C      28.50      30.61      10.63
C      29.02      30.72       9.32
C      28.21      31.29       8.30
C      26.90      31.74       8.56
C      26.38      31.62       9.88
C      27.20      31.08      10.90
C      16.04      20.72      30.16
C      15.43      20.58      28.88
C      16.13      19.88      27.86
C      17.41      19.32      28.08
C      18.01      19.47      29.36
C      17.32      20.17      30.37
C       1.55      31.65      19.77
C       2.13      31.49      18.49
C       1.41      30.80      17.48
C       0.12      30.28      17.71
C      31.70      30.45      18.99
C       0.27      31.12      20.01
C      27.07       3.13       0.84
C      26.45       3.28      37.56
C      27.13       3.97      36.53
C      28.42       4.51      36.72
C      29.04       4.36       0.01
C      28.35       3.68       1.04
C      10.88      15.52       9.02
C      10.29      15.35      10.29
C      11.00      14.66      11.30
C      12.28      14.13      11.08
C      12.87      14.28       9.80
C      12.16      14.97       8.79
C      12.42      20.34      37.42
C      12.90      20.18       0.75
C      12.06      19.61       1.74
C      10.75      19.19       1.42
C      10.27      19.34       0.10
C      11.12      19.89      37.10
C      28.15      14.11      29.85
C      28.71      14.36      28.57
C      27.93      15.03      27.59
C      26.61      15.46      27.86
C      26.05      15.21      29.13
C      26.83      14.54      30.11
C      17.64      15.63      20.40
C      18.18      15.40      19.12
C      17.40      14.72      18.15
C      16.10      14.25      18.43
C      15.55      14.51      19.71
C      16.33      15.19      20.68
C       1.71       3.24      27.40
C       2.25       3.56      28.66
C       1.44       4.21      29.62
C       0.10       4.57      29.35
C      31.71       4.22      28.09
C       0.36       3.56      27.12
C       0.19      20.58      10.91
C      31.77      20.35       9.64
C       0.36      19.67       8.64
C       1.68      19.23       8.89
C       2.26      19.46      10.16
C       1.50      20.13      11.16
C      17.87      31.62       1.06
C      18.43      31.42      37.76
C      17.68      30.75      36.77
C      16.38      30.26      37.03
C      15.81      30.47       0.33
C      16.56      31.15       1.32
N      30.17      31.07       0.68
N       3.25       0.82      37.67
N       2.01       1.02       2.24
N      31.55      30.62      36.11
N      30.34       5.77      19.76
N      25.10       3.90      18.66
N      26.29       3.69      21.25
N      29.00       6.26      17.19
N      14.43      15.13      28.16
N       9.24      17.14      29.30
N      10.42      17.30      26.70
N      13.08      14.67      30.73
N      14.18      21.89       9.17
N      19.39      19.93      10.26
N      18.19      19.76       7.67
N      15.54      22.36      11.72
N       8.91      20.18      18.55
N      14.12      22.14      19.65
N      12.82      22.54      17.10
N      10.02      19.98      21.07
N      25.06      17.05      10.13
N      30.33      15.25       9.06
N      29.16      15.01      11.62
N      26.11      17.12       7.57
N      19.31       3.96      29.57
N      14.18       6.17      28.64
N      15.55       6.48      31.15
N      18.05       3.84      27.01
N      30.42      14.90      19.27
N       3.45      16.96      18.26
N       2.21      17.12      20.83
N      31.75      14.56      16.71
N      30.30      22.11       0.24
N      25.13      19.96      37.37
N      26.43      19.83       1.91
N      28.90      22.43      35.73
N      14.13      30.86       9.53
N       8.97       0.83      10.51
N      10.23       0.99       7.96
N      12.79      30.55      12.07
N       8.94       3.94      37.79
N      14.22       5.61       1.06
N      13.13       5.91      36.45
N       9.93       3.79       2.39
N      24.73       0.64      29.39
N      30.01      31.05      28.27
N      28.72      30.55      30.82
N      25.84       0.93      26.88
N      14.24      31.24      20.02
N      19.49       0.85      18.84
N      18.42       1.10      21.38
N      15.55      30.70      17.45
N      30.36      21.70      27.79
N       3.60      20.38      28.93
N       2.50      19.94      26.43
N      31.66      22.42      30.32
N       3.58       4.01      10.41
N      30.47       5.83       9.36
N      31.80       6.30      11.89
N       2.44       3.77       7.90
N      14.54      14.93       0.62
N      19.74      16.90      37.51
N      18.63      17.08       2.05
N      15.84      14.52      36.06
N      30.17      13.90       0.68
N       3.25      15.82      37.67
N       2.01      16.02       2.24
N      31.55      13.45      36.11
N      30.34      20.77      19.76
N      25.10      18.90      18.66
N      26.29      18.69      21.25
N      29.00      21.26      17.19
N      14.43      30.13      28.16
N       9.24      32.14      29.30
N      10.42       0.14      26.70
N      13.08      29.67      30.73
N      14.18       4.73       9.17
N      19.39       2.77      10.26
N      18.19       2.60       7.67
N      15.54       5.20      11.72
N       8.91       3.02      18.55
N      14.12       4.98      19.65
N      12.82       5.38      17.10
N      10.02       2.82      21.07
N      25.06      32.05      10.13
N      30.33      30.25       9.06
N      29.16      30.01      11.62
N      26.11      32.12       7.57
N      19.31      18.96      29.57
N      14.18      21.17      28.64
N      15.55      21.48      31.15
N      18.05      18.84      27.01
N      30.42      29.90      19.27
N       3.45      31.96      18.26
N       2.21      32.12      20.83
N      31.75      29.56      16.71
N      30.30       4.95       0.24
N      25.13       2.80      37.37
N      26.43       2.67       1.91
N      28.90       5.26      35.73
N      14.13      13.69       9.53
N       8.97      15.83      10.51
N      10.23      15.99       7.96
N      12.79      13.39      12.07
N       8.94      18.94      37.79
N      14.22      20.61       1.06
N      13.13      20.91      36.45
N       9.93      18.79       2.39
N      24.73      15.64      29.39
N      30.01      13.88      28.27
N      28.72      13.39      30.82
N      25.84      15.93      26.88
N      14.24      14.08      20.02
N      19.49      15.85      18.84
N      18.42      16.10      21.38
N      15.55      13.53      17.45
N      30.36       4.54      27.79
N       3.60       3.22      28.93
N       2.50       2.77      26.43
N      31.66       5.26      30.32
N       3.58      19.01      10.41
N      30.47      20.83       9.36
N      31.80      21.30      11.89
N       2.44      18.77       7.90
N      14.54      29.93       0.62
N      19.74      31.90      37.51
N      18.63      32.08       2.05
N      15.84      29.52      36.06
O      30.15      30.23       1.62
O       3.28       1.67      36.74
O       4.02      32.03      37.38
O      29.39      32.01       0.97
O      30.35       6.60      20.70
O      25.08       3.05      17.73
O      24.34       4.85      18.35
O      31.11       4.82      20.05
O      14.41      14.31      27.21
O       9.26      17.98      30.24
O       8.46      16.21      29.61
O      15.21      16.07      27.87
O      14.18      22.72       8.22
O      19.39      19.09      11.19
O      20.16      20.87      10.56
O      13.39      20.95       8.88
O       8.90      19.33      17.63
O      14.93      21.24      19.98
O      14.06      22.99      20.57
O       8.13      21.12      18.24
O      25.03      17.97      10.98
O      30.32      14.33       8.21
O      31.07      16.17       8.64
O      24.34      16.10      10.55
O      19.32       3.11      30.49
O      13.32       5.31      28.33
O      14.24       7.03      27.72
O      20.13       4.87      29.86
O      29.60      15.80      19.59
O       3.47      17.81      17.34
O       4.23      16.02      17.96
O      30.46      14.05      20.18
O      31.16      21.25       0.56
O      25.09      19.11      36.45
O      24.33      20.89      37.09
O      30.25      22.98       1.15
O      14.98      31.73       9.20
O       8.94       1.68      11.44
O       8.18      32.06      10.79
O      14.06      29.99       8.63
O       8.93       3.02      36.92
O      14.21       6.52       1.93
O      14.92       4.66       1.47
O       8.25       4.90      37.37
O      24.70       1.48      30.32
O      30.78      31.99      27.97
O      30.00      30.21      27.33
O      23.98      31.83      29.70
O      14.23      30.43      20.98
O      19.49       1.70      17.91
O      20.25      32.07      18.52
O      13.49       0.05      20.30
O      29.69      20.67      27.55
O       3.68      19.57      29.89
O       4.29      21.40      29.21
O      30.27      22.48      26.81
O       3.60       3.16      11.33
O      29.69       4.90       9.05
O      30.48       6.67       8.42
O       4.34       4.96      10.71
O      13.73      15.83       0.96
O      19.75      17.75      36.59
O      20.52      15.96      37.19
O      14.59      14.08       1.55
O      30.15      13.07       1.62
O       3.28      16.67      36.74
O       4.02      14.87      37.38
O      29.39      14.85       0.97
O      30.35      21.60      20.70
O      25.08      18.05      17.73
O      24.34      19.85      18.35
O      31.11      19.82      20.05
O      14.41      29.31      27.21
O       9.26       0.82      30.24
O       8.46      31.21      29.61
O      15.21      31.07      27.87
O      14.18       5.56       8.22
O      19.39       1.93      11.19
O      20.16       3.71      10.56
O      13.39       3.79       8.88
O       8.90       2.16      17.63
O      14.93       4.08      19.98
O      14.06       5.83      20.57
O       8.13       3.96      18.24
O      25.03       0.81      10.98
O      30.32      29.33       8.21
O      31.07      31.17       8.64
O      24.34      31.10      10.55
O      19.32      18.11      30.49
O      13.32      20.31      28.33
O      14.24      22.03      27.72
O      20.13      19.87      29.86
O      29.60      30.80      19.59
O       3.47       0.65      17.34
O       4.23      31.02      17.96
O      30.46      29.05      20.18
O      31.16       4.09       0.56
O      25.09       1.94      36.45
O      24.33       3.73      37.09
O      30.25       5.82       1.15
O      14.98      14.56       9.20
O       8.94      16.68      11.44
O       8.18      14.89      10.79
O      14.06      12.83       8.63
O       8.93      18.02      36.92
O      14.21      21.52       1.93
O      14.92      19.66       1.47
O       8.25      19.90      37.37
O      24.70      16.48      30.32
O      30.78      14.83      27.97
O      30.00      13.05      27.33
O      23.98      14.67      29.70
O      14.23      13.27      20.98
O      19.49      16.70      17.91
O      20.25      14.91      18.52
O      13.49      15.05      20.30
O      29.69       3.50      27.55
O       3.68       2.41      29.89
O       4.29       4.24      29.21
O      30.27       5.31      26.81
O       3.60      18.16      11.33
O      29.69      19.90       9.05
O      30.48      21.67       8.42
O       4.34      19.96      10.71
O      13.73      30.83       0.96
O      19.75       0.59      36.59
O      20.52      30.96      37.19
O      14.59      29.08       1.55
