13

O       9.58       8.30      19.22
O       7.91       8.69      17.77
O       7.40       4.26      19.62
O       6.20       7.34      20.58
O       8.05       6.51      21.54
C       6.30       7.28      22.98
C       6.88       7.02      21.64
C       7.66       4.86      16.02
C       9.03       9.02      18.29
C       9.76      10.23      17.83
La       7.92       6.57      19.07
O       8.19       5.61      16.92
C       6.76       3.18      19.50
