25

Cd      15.58       7.13       2.44
Cd      13.72       8.99       0.08
Cd      12.06       7.07      -2.51
N      13.25       5.90      -0.87
N      13.84       6.63       0.06
N      14.52       5.87       0.93
C      13.41       9.56       2.89
O      13.39      10.35       1.88
O      13.69       8.31       2.78
O      16.01       8.55       0.54
O      17.29       8.67       2.37
O      13.95       8.54      -2.70
O      14.01      10.50      -1.59
O      11.55       8.48      -0.35
O      10.36       8.60      -2.23
C      16.96       9.10       1.21
O      12.31       5.17      -3.93
O      12.20       7.22      -4.82
C      14.13       9.79      -2.65
C      10.64       9.03      -1.07
O      15.64       6.26       4.52
C      13.55       4.58      -0.62
C      14.36       4.56       0.55
C      12.39       5.96      -4.93
C      15.98       6.81       5.60
