25

C      13.44      21.12       2.62
C      16.90      20.36       1.09
Cd      15.46      18.38       2.52
Cd      12.00      18.43      -2.46
Cd      13.87      20.30      -0.08
C      14.00      15.89       0.61
C      13.19      15.87      -0.55
N      14.31      17.20       0.87
N      13.72      17.94      -0.06
N      13.04      17.18      -0.93
O      15.19      16.48       3.93
O      15.32      18.52       4.83
C      15.13      17.26       4.94
O      11.88      17.49      -4.52
C      11.55      18.05      -5.60
O      14.15      21.64      -1.90
O      13.91      19.58      -2.78
O      11.59      19.90      -0.54
O      10.35      20.03      -2.39
O      13.58      19.86       2.64
O      13.60      21.85       1.58
O      16.04      19.77       0.34
O      17.12      19.97       2.28
C      14.16      20.84      -2.90
C      10.66      20.45      -1.22
