25

Cd      11.62      12.61      10.53
Cd      13.40      14.65      12.87
Cd      15.11      12.94      15.46
N      12.74      11.52      12.27
N      13.41      12.30      13.10
N      14.04      11.59      14.05
C      11.89      11.49       8.11
O      11.38      12.66       8.20
O      12.13      10.76       9.14
C      13.73      15.25      10.17
O      13.52      14.00      10.37
O      13.71      16.09      11.15
O      11.20      14.07      12.61
O       9.90      14.13      10.79
C      10.22      14.58      11.94
O      13.32      14.27      15.87
O      13.16      16.14      14.60
C      13.05      15.50      15.70
O      15.08      11.84      17.44
C      15.43      12.35      18.53
C      12.93      10.22      12.68
C      13.76      10.27      13.83
C      16.50      14.90      14.21
O      16.74      14.53      15.42
O      15.65      14.27      13.49
