12

Ni       3.58       2.36       5.12
N       2.65       4.06       5.63
C       0.88       1.15       5.21
O       4.56       2.07       6.79
C       2.43       0.10       6.60
C       2.65       4.50       6.90
C       1.81       4.63       4.74
C       5.67       2.61       7.17
C       3.73       1.29       2.86
N       2.13       1.07       5.71
O       2.92       2.27       3.05
O       4.50       0.89       3.80
