20

Eu      10.41      11.33       0.24
Eu      14.14      11.53      -0.24
C      12.16       9.61      -2.18
C      11.26      13.38      -1.66
C      13.28       9.49       1.66
C      12.39      13.26       2.18
N      16.32      13.45       0.14
N       8.22       9.42      -0.14
O       8.15      10.58      -0.68
O      14.50       9.74       1.42
O      11.09      10.01      -1.62
O      16.39      12.29       0.68
O      10.04      13.12      -1.42
O      13.45      12.85       1.62
O      12.34      10.09       1.01
O      12.21      12.78      -1.01
O      11.21      12.80       1.97
O      15.46      13.57      -0.83
O       9.08       9.29       0.83
O      13.33      10.07      -1.97
