22

Cr      10.89       6.45       7.94
Cr       9.24       3.47       8.46
Cr       7.51       6.45       8.44
C      11.65       4.26       9.97
C       7.78       4.79      10.64
C       9.57       8.18       9.93
C      11.15       3.87       6.22
C       6.71       4.11       6.83
C       8.98       7.94       6.17
O      10.66       7.92       9.35
O      11.70       5.34       9.33
O      10.84       3.32       9.75
O       8.12       3.70      10.00
O       6.83       5.52      10.14
O       8.46       7.69       9.59
O      10.21       7.67       6.42
O      11.28       5.10       6.61
O      10.39       3.06       6.81
O       7.70       3.47       7.29
O       6.37       5.27       7.21
O       8.05       7.45       6.87
O       9.22       5.46       8.28
