126

C       9.44      16.21       9.49
C       9.44      16.13       8.06
C       0.04      15.00       7.32
C       0.42      13.83       8.06
C       0.09      13.74       9.45
C       9.53      14.93      10.12
C       9.17      13.59       3.47
C       0.88      14.66       4.99
C       9.68      14.95       5.91
C       8.11      14.04       4.30
C       9.59      12.46       9.99
C       0.73      10.32      10.59
C       9.48       9.61      10.00
C       8.48      11.76       9.46
C       9.39      -0.52      19.18
C       0.02       0.62      17.00
C       9.52       0.65      18.38
C       9.24      11.07       0.63
C       9.14       9.88       1.42
C       8.94       9.88       2.83
C       8.94      11.12       3.53
C       9.09      12.34       2.80
C       9.26      12.28       1.39
C       9.42       4.59      10.19
C       9.50       4.51      11.61
C       0.03       3.32      12.30
C       9.37       5.85       9.46
C       9.47       7.13      10.10
C       9.65       8.34       9.38
C       0.02       8.27       7.97
C       9.54       7.06       7.28
C       9.26       5.90       8.04
C       9.21       7.11       5.90
C       0.29       7.97       3.82
C       8.91       8.63       3.52
C       7.95       7.64       5.51
C       9.56       3.16      13.69
C       0.78       2.68      15.82
C       9.61       1.74      16.16
C       8.52       2.27      14.06
C       9.33      -1.74      18.42
C       9.72      -1.84      17.06
C       0.28      -0.65      16.39
C       0.38       2.17      11.54
C       0.04       2.12      10.15
C       9.45       3.32       9.53
C       9.38      -2.99      16.29
C       8.14      -3.01      15.60
C       0.87      -0.05       9.25
C       9.66       0.88       9.50
C       8.12      -0.99       9.56
C       0.44      -4.43      14.55
C       9.30      -5.64      10.22
C       9.28      -4.37       9.56
C       9.16      -3.13      10.23
C       9.12      -3.11      11.66
C       9.12      -4.34      12.38
C       9.26      -5.56      11.65
C       9.08      -4.35      13.80
C       9.20      -1.92       9.48
H       9.31      14.83      11.11
H       1.35      12.78       6.57
H       1.57      12.17       8.06
H       9.16      16.94       7.50
H       1.86      14.76       5.27
H       1.58       9.82      10.87
H       9.39      13.17       0.92
H       8.85      10.36       5.44
H       9.10      11.94       5.41
H       9.35       1.57      18.77
H       9.28       5.32      12.19
H       0.94      10.07       7.81
H       0.88       9.27       6.41
H       9.42       7.20      11.11
H       1.15       8.19       3.31
H       1.64       2.74      16.37
H       9.33      -1.85      13.27
H       9.28      -1.07      11.88
H       9.01      -2.60      18.86
H       1.40       0.11      14.89
H       1.29      -1.51      14.84
H       9.20       8.97       0.98
H       9.01       5.08       7.50
H       1.38       0.38      11.68
H       1.45       1.29      13.02
H       9.25       3.24       8.54
H       1.85       0.25       9.26
H       9.38      -4.32       8.55
H       9.30      -6.41      12.21
H       1.29      -4.81      14.13
N       1.06      12.77       7.48
N       0.59      13.93       3.88
N       8.42      14.63       5.50
N       6.78      13.68       4.00
N       0.77      11.68      10.49
N       8.51      10.40       9.44
N       7.42      12.44       8.81
N       8.93      11.15       4.90
N       0.56       9.33       7.32
N       0.40       7.32       5.01
N       7.89       8.41       4.39
N       6.85       7.60       6.40
N       0.75       3.28      14.59
N       8.63       1.58      15.23
N       9.19      -1.91      12.33
N       0.94      -0.68      15.20
N       1.03       1.14      12.16
N       0.56      -3.70      15.69
N       8.07      -3.64      14.39
N       7.06      -2.21      16.03
N       7.46       1.99      13.17
N       0.61      -1.38       9.35
N       8.42       0.34       9.63
N       6.81      -1.46       9.78
O       6.30      12.94       4.90
O       6.06      14.71       3.93
O       7.34      12.09       7.61
O       6.33      12.16       9.37
O       6.54       8.75       6.77
O       5.86       7.09       5.81
O       6.36       2.25      13.71
O       6.82      -1.31      15.18
O       6.03      -2.91      16.15
O       7.45       0.77      12.87
O       6.38      -1.09      10.90
O       6.04      -1.01       8.90
