158

C       9.26      31.65       3.15
C       9.26      30.68       2.17
C       9.28      31.31       0.92
C       9.27      32.91       2.54
C       9.26      34.16       3.23
C       9.27       0.94       2.59
C       9.27       2.55       1.00
C       9.24       3.17       2.25
C       9.24       2.19       3.22
C       9.27       3.31      34.22
C       9.28       2.63      32.97
C       9.28       1.04      31.35
C       9.29       2.29      30.74
C       9.28       3.26      31.72
C       9.28      34.27      30.65
C       9.28      33.00      31.30
C       9.27      31.40      32.89
C       9.26      30.78      31.63
C       9.25      31.76      30.66
C       9.27      30.74      34.15
C       9.23      29.30      34.15
C       8.01      28.61      33.95
C       7.97      27.20      33.91
C       9.14      26.41      34.07
C       0.54      27.11      34.29
C       0.59      28.52      34.32
C       9.08      24.97      33.99
C       0.04      24.03       0.35
C       9.76      22.62       0.28
C       8.90      22.08      33.84
C       8.15      22.92      32.98
C       8.24      24.32      33.05
C       9.23      34.29      29.22
C       8.02      34.53      28.54
C       7.97       0.09      27.13
C       9.13      34.38      26.33
C       0.53      34.12      27.03
C       0.58      34.09      28.44
C       9.08      34.47      24.89
C       8.28       0.96      24.25
C       8.20       1.05      22.84
C       8.91       0.17      22.00
C       9.73      33.68      22.63
C       9.81      33.59      24.04
C       9.23       4.75      34.22
C       0.59       5.52      34.09
C       0.54       6.94      34.12
C       9.12       7.63      34.28
C       7.95       6.84      34.39
C       8.00       5.43      34.36
C       9.06       9.08      34.36
C       8.19       9.62       0.79
C       8.11      11.02       0.88
C       8.90      11.87       0.06
C       9.78      11.33      33.64
C       0.05       9.92      33.55
C       9.22      34.14       4.67
C       0.58      34.32       5.45
C       8.00      33.93       5.35
C       7.95      33.90       6.76
C       9.12      34.07       7.56
C       0.52      34.29       6.86
C       9.06      34.00       9.00
C       0.02       0.37       9.84
C       9.73       0.32      11.25
C       8.87      33.89      11.89
C       8.12      33.02      11.06
C       8.22      33.07       9.66
C       8.72      20.69      33.78
C       8.77       0.28      20.61
C       8.77      13.26       0.18
C       8.68      33.84      13.28
C       9.60      18.47      34.09
C       8.42      17.75      34.35
C       8.40      16.34      34.34
C       9.57      15.59      34.10
C       0.97      16.29      33.84
C       0.99      17.73      33.85
C       2.23      15.53      33.57
C       2.27      18.46      33.58
C       9.58      34.16      15.50
C       8.39      34.41      16.23
C       8.38      34.42      17.63
C       9.55      34.19      18.38
C       0.96      33.93      17.67
C       0.97      33.93      16.23
C       2.22      33.67      18.43
C       2.25      33.67      15.50
H       7.48      32.33      11.47
H       7.66      32.41       9.11
H       0.47       0.98      11.80
H       0.63       1.08       9.42
H       1.40      34.40       7.38
H       1.48      34.46       4.99
H       7.04      33.77       7.21
H       7.13      33.81       4.82
H       9.25      31.45       4.15
H       9.24      29.68       2.35
H       9.29      33.33       0.53
H       9.28       0.62      33.36
H       9.22       2.36       4.23
H       9.23       4.17       2.44
H       1.50       5.06      33.99
H       1.42       7.45      34.06
H       7.13       4.90      34.45
H       7.03       7.18       0.00
H       9.28       4.27      31.54
H       9.29       2.49      29.73
H       9.24      29.77      31.44
H       9.23      31.58      29.66
H       7.15       0.19      29.07
H       7.06       0.25      26.68
H       1.48      33.92      28.90
H       1.40      34.00      26.51
H       0.57      32.85      24.45
H       0.45      33.01      22.07
H       7.60       1.78      22.44
H       7.75       1.64      24.80
H       1.49      28.99      34.46
H       1.42      26.60      34.38
H       7.68      24.87      32.39
H       7.51      22.51      32.29
H       0.50      22.06       0.94
H       0.65      24.44       1.06
H       7.06      26.76      33.78
H       7.14      29.14      33.83
H       7.61       9.07       1.43
H       7.46      11.42       1.56
H       0.69       9.51      32.86
H       0.56      11.89      33.01
H       7.86      20.36      33.40
H       7.82      33.47      13.62
H       8.05      13.61       0.77
H       8.06       0.89      20.26
H       7.50      15.77       0.02
H       7.54      18.14       0.06
H       2.11      14.44      33.59
H       2.98      15.77      34.31
H       2.61      15.78      32.58
H       2.18      19.55      33.61
H       2.65      18.20      32.59
H       3.02      18.19      34.33
H       7.49       0.09      18.10
H       7.51       0.12      15.74
H       2.10      33.69      19.52
H       2.97      34.42      18.18
H       2.61      32.68      18.18
H       2.15      33.69      14.41
H       2.64      32.69      15.76
H       2.99      34.43      15.76
N       9.29      32.64       1.20
N       9.28       1.22       1.26
N       9.29       1.30      32.68
N       9.29      32.73      32.63
N       9.60      19.82      34.12
N       9.53      14.23      34.09
N       9.57      34.18      14.15
N       9.52      34.18      19.73
