32

H       0.67       9.90      10.66
H      -0.11       9.24       8.37
H       3.08      11.55       6.65
H       0.01      12.60       5.23
H       1.18      14.08       3.57
H       2.83       9.48       4.32
C       2.80      11.29      11.33
C       2.37      10.98       9.92
C       1.24      10.18       9.78
C       0.75       9.88       8.51
C       1.44      10.36       7.36
C       2.58      11.15       7.52
C       3.08      11.46       8.80
C       4.12      12.53       8.98
C       0.83      10.16       6.05
C       1.39      10.96       4.90
C       0.85      12.23       4.64
C       1.53      13.07       3.75
C       2.62      12.62       3.03
C       3.06      11.28       3.17
C       2.44      10.48       4.14
C       3.91      10.65       2.08
C       3.21      13.53       1.99
O       3.72      10.68      11.90
O       2.04      12.11      12.03
O       4.15      12.95      10.22
O       4.79      12.96       8.03
O      -0.15       9.42       5.92
O       5.10      11.02       1.93
O       3.38       9.72       1.35
O       3.40      14.74       2.26
O       3.40      12.95       0.86
