16

O       8.52      11.77       9.84
C       9.16       7.00      10.30
H      10.31       8.33       9.05
H       6.71       7.98      12.46
C       9.52       8.25       9.79
C       8.83       9.40      10.19
C       9.84       5.78       9.77
O       9.18       4.69       9.70
C       8.14       6.90      11.26
O      11.05       5.88       9.38
H       7.87       5.92      11.65
C       7.49       8.06      11.71
C       7.82       9.30      11.17
H       7.32      10.20      11.51
C       9.18      10.69       9.56
O      10.15      10.75       8.73
