16

O       8.03       4.21      16.14
O       7.13       2.60      10.01
H       7.16       3.78      13.81
H      11.19       2.49      14.54
O       5.94       3.52      11.69
H      11.24       1.35      12.31
O      10.28       4.01      16.23
H       9.28       1.57      10.78
C       9.17       3.85      15.64
C       8.05       3.26      13.47
C       9.17       3.19      14.31
C      10.33       2.51      13.88
C       6.98       2.94      11.24
C       8.10       2.69      12.19
C       9.25       2.00      11.77
C      10.35       1.90      12.63
