16

C      12.59      12.27      15.64
C      13.70      11.67      13.47
C      12.58      11.61      14.31
C      11.43      10.93      13.88
C      14.78      11.35      11.24
C      13.65      11.11      12.19
C      12.50      10.42      11.77
H      10.52       9.76      12.31
C      11.40      10.31      12.63
O      15.82      11.94      11.69
O      13.72      12.62      16.14
O      14.63      11.02      10.01
H      14.60      12.19      13.81
H      10.56      10.90      14.54
H      12.48       9.99      10.78
O      11.48      12.42      16.23
