16

H      11.24       7.06       2.94
C      10.35       6.52       3.26
O       8.03       4.20       6.77
O       7.13       5.81       0.64
H       7.16       4.63       4.44
H      11.19       5.93       5.17
H       9.28       6.84       1.41
O      10.28       4.40       6.86
C       8.05       5.15       4.11
C       9.17       5.22       4.94
C      10.33       5.90       4.51
C       6.98       5.48       1.87
C       8.10       5.72       2.82
C       9.25       6.41       2.41
C       9.17       4.56       6.27
O       5.94       4.89       2.32
