30

H      13.97       4.64       3.20
H      13.96       5.88       7.34
H      15.84       4.64       7.33
H      15.84       5.88       3.20
H      10.25       5.26       5.26
H      19.55       5.27       5.27
C      11.35       4.75       2.80
C      12.05       4.97       4.09
C      13.45       4.94       4.11
C      11.34       5.78       7.73
C      12.05       5.55       6.44
C      13.45       5.59       6.42
C      18.46       4.75       7.73
C      17.76       4.98       6.44
C      16.36       4.94       6.42
C      18.46       5.78       2.80
C      17.76       5.55       4.09
C      16.36       5.59       4.11
C      11.34       5.26       5.26
C      14.16       5.26       5.27
C      18.47       5.27       5.27
C      15.64       5.27       5.27
O      11.99       4.10       1.90
O      10.19       5.26       2.68
O      11.98       6.43       8.63
O      10.18       5.27       7.85
O      17.82       4.10       8.63
O      19.62       5.26       7.85
O      17.82       6.43       1.90
O      19.62       5.27       2.68
