30

H      10.98       8.46       0.62
H      10.98      12.60      -0.62
H      12.86      12.60       0.62
H      12.86       8.46      -0.62
H       7.27      10.53      -0.00
H      16.57      10.53      -0.00
C       8.36       8.06       0.51
C       9.07       9.36       0.29
C      10.46       9.37       0.33
C       8.36      12.99      -0.51
C       9.06      11.70      -0.29
C      10.46      11.69      -0.33
C      15.48      12.99       0.51
C      14.77      11.70       0.29
C      13.37      11.69       0.33
C      15.48       8.06      -0.52
C      14.77       9.36      -0.29
C      13.38       9.37      -0.33
C       8.36      10.53      -0.00
C      11.18      10.53       0.00
C      15.48      10.53       0.00
C      12.66      10.53       0.00
O       9.00       7.16       1.16
O       7.20       7.95       0.00
O       9.00      13.89      -1.16
O       7.20      13.11      -0.01
O      14.84      13.89       1.17
O      16.63      13.11       0.00
O      14.84       7.17      -1.17
O      16.64       7.95      -0.01
