14

S       0.06       7.82       7.82
S      -4.21      11.45       7.91
Cd      -2.03      12.09       6.34
N      -0.73      12.73       8.29
C      -0.72       9.02       7.04
C      -0.58      14.05       8.54
C      -0.12      11.85       9.10
C      -3.10      15.14       5.42
C      -3.22      10.14       4.00
C      -4.14      12.25       3.75
N      -1.32       9.89       6.49
N      -2.60      14.33       6.12
N      -3.31      11.42       4.40
C      -4.90      10.32       6.95
