192

C       7.91      16.75       1.06
C       7.91      15.33       1.04
C       9.75      15.33      23.92
C       9.75      16.75      23.91
C      10.54      17.42      22.94
C      11.31      16.74      21.97
C      11.34      15.33      22.04
C      10.59      14.64      23.02
C       7.07      14.64       1.95
C       6.32      15.33       2.93
C       6.35      16.73       3.00
C       7.11      17.42       2.03
C       9.75       0.89       1.06
C       9.75       2.31       1.04
C       7.90       2.31      23.93
C       7.91       0.90      23.92
C       7.06       3.01      23.03
C       6.31       2.32      22.06
C       6.34       0.91      21.99
C       7.11       0.22      22.95
C      10.55       0.22       2.02
C      11.32       0.91       2.99
C      11.35       2.32       2.92
C      10.60       3.00       1.95
C       8.83       0.11       0.16
C       8.83       3.08       0.16
C       8.83      14.56       0.16
C       6.10      17.39       4.23
C      11.56      17.39      20.74
C       6.08       0.26      20.75
C      11.58       0.25       4.22
C       0.91       7.91      13.38
C       2.32       7.91      13.37
C       2.31       9.76      11.59
C       0.90       9.75      11.58
C       0.22      10.55      10.62
C       0.90      11.31       9.65
C       2.31      11.35       9.71
C       3.00      10.60      10.69
C       3.02       7.07      14.27
C       2.34       6.32      15.25
C       0.93       6.35      15.32
C       0.24       7.11      14.35
C      16.76       9.75      13.39
C      15.34       9.74      13.38
C      15.34       7.90      11.60
C      16.76       7.90      11.59
C      14.65       7.05      10.70
C      15.34       6.31       9.72
C      16.75       6.34       9.65
C       0.00       7.11      10.62
C      17.43      10.55      14.35
C      16.74      11.31      15.32
C      15.33      11.34      15.25
C      14.65      10.58      14.28
C       0.11       8.83      12.48
C      14.57       8.82      12.49
C       3.09       8.84      12.48
C       0.27       6.09      16.55
C       0.24      11.57       8.42
C      17.41       6.09       8.42
C      17.40      11.58      16.54
C       1.26       0.09       5.37
C       0.82       0.09       4.04
C      16.86       0.14       4.04
C      16.41       0.14       5.37
C      15.03       0.20       5.65
C      14.07       0.24       4.60
C      14.55       0.25       3.26
C      15.93       0.20       2.98
C       1.74       0.03       2.98
C       3.13      17.41       3.27
C       3.61      17.42       4.60
C       2.64       0.04       5.65
C       0.10       1.25       7.28
C       0.10       0.81       8.61
C       0.15      16.85       8.61
C       0.14      16.41       7.28
C       0.20      15.92       9.67
C       0.24      14.54       9.38
C       0.23      14.06       8.04
C       0.19      15.03       7.00
C       0.05       2.63       7.00
C       0.00       3.60       8.05
C      17.43       3.12       9.38
C       0.04       1.74       9.67
C       0.12       0.11       6.32
C       0.13       1.26      17.69
C       0.14       0.82      16.37
C       0.08      16.85      16.37
C       0.08      16.41      17.69
C       0.02      15.03      17.97
C      17.41      14.06      16.93
C      17.40      14.54      15.59
C       0.01      15.93      15.30
C       0.20       1.74      15.30
C       0.24       3.12      15.59
C       0.24       3.60      16.93
C       0.19       2.64      17.97
C      16.40       0.10      19.60
C      16.84       0.09      20.93
C       0.80       0.14      20.93
C       1.25       0.14      19.60
C       1.73       0.20      21.99
C       3.11       0.24      21.71
C       3.59       0.24      20.37
C       2.63       0.19      19.33
C      15.02       0.04      19.32
C      14.05      17.43      20.37
C      14.53      17.42      21.71
C      15.91       0.03      21.99
C       0.11       0.12      18.65
H      11.82       2.85       3.65
H      10.58       4.03       1.98
H       7.07       4.03      23.01
H       5.83       2.86      21.33
H       7.18      16.64      22.87
H      10.47      16.63       2.10
H      10.47       1.01      22.86
H      11.81      14.79      21.31
H      10.58      13.62      22.99
H       7.19       1.01       2.11
H       7.08      13.62       1.97
H       5.85      14.78       3.66
H       8.21       3.72       0.80
H       9.44       3.73      24.18
H       8.21      13.92      24.17
H       9.44      13.92       0.79
H      14.79      11.81      15.99
H      13.62      10.57      14.31
H      13.63       7.06      10.68
H      14.80       5.83       8.99
H       1.02       7.19      10.54
H       1.02      10.48      14.42
H      16.63      10.47      10.54
H       2.85      11.82       8.98
H       4.03      10.59      10.66
H      16.65       7.18      14.43
H       4.04       7.09      14.30
H       2.88       5.85      15.98
H      13.93       8.20      13.13
H      13.92       9.43      11.86
H       3.73       8.22      11.84
H       3.73       9.45      13.11
H       0.02       3.77      10.17
H       0.05       1.41      10.64
H       0.19      16.24      10.64
H       0.22      13.89      10.16
H       0.17      14.73       6.02
H       0.06       2.93       6.02
H      14.74       0.18       6.62
H      13.90       0.23       2.48
H      16.25       0.19       2.01
H       2.94       0.05       6.63
H       1.42       0.04       2.01
H       3.78       0.00       2.48
H      17.20      12.57       6.80
H       5.10       0.45       5.84
H      12.58      17.22       5.85
H       0.46       5.09       6.80
H      13.88      17.43      22.49
H      16.24       0.03      22.96
H       1.40       0.19      22.96
H       3.76       0.22      22.49
H       2.93       0.18      18.35
H      14.72       0.06      18.35
H       0.04      14.73      18.95
H      17.41      13.89      14.81
H       0.03      16.25      14.33
H       0.17       2.94      18.95
H       0.18       1.42      14.33
H       0.23       3.78      14.81
H       5.08      17.22      19.13
H      17.22       5.10      18.17
H       0.42      12.57      18.17
H      12.56       0.46      19.13
N       0.12      12.73       7.70
N       4.94       0.10       4.95
N      12.73       0.13       4.94
N       0.11       4.94       7.70
N       4.93       0.13      20.03
N       0.13       4.94      17.27
N       0.08      12.73      17.27
N      12.72       0.11      20.03
O      10.43       0.34      20.10
O       7.23       0.34       4.87
O       7.22      17.32      20.11
O      10.45      17.31       4.87
O      17.29      10.44       7.78
O      17.35       7.23      17.20
O       0.33       7.22       7.77
O       0.33      10.44      17.20
