19

Cu       2.62       4.62       4.43
Cu       2.10       5.49       6.65
Cu       2.00       7.07       4.69
Cu      -0.47       3.15       5.41
C       1.84       2.92       2.10
C       0.57       1.50       3.10
C       2.13       8.09       8.55
C       1.98       9.47       6.91
C       1.60       8.78       2.19
C      -0.21       2.53       8.27
C       1.19       3.93       9.09
N       1.57       3.43       3.30
N       0.73       2.53       3.94
N       1.77       7.38       7.49
N       1.67       8.26       6.43
N       1.93       7.64       2.80
N       2.45       6.78       1.84
N       0.23       3.27       7.25
N       1.13       4.17       7.79
