16

C       1.58       1.67       6.39
C       1.32       2.99       6.02
O       3.02       6.19       5.87
O       0.94       5.62       5.15
O       5.55       0.95       7.83
O       6.24       2.11       6.01
C       3.68       3.51       6.26
H       4.49       4.23       6.19
H       3.08       0.24       7.03
H       0.31       3.30       5.77
C       2.09       5.35       5.64
C       2.37       3.92       5.98
N       0.48       0.75       6.46
C       3.94       2.18       6.60
C       5.36       1.73       6.81
C       2.88       1.26       6.71
