360

C      14.35       4.18      16.21
C      10.11      10.35       6.03
C       9.05      11.13       6.53
C       6.24       8.48       0.51
C       6.49       7.30       1.28
C       6.48       7.28       2.70
C       6.24       8.48       3.39
C       5.99       9.68       2.70
C       5.98       9.66       1.28
C       6.23       8.48      29.60
C       6.33       7.28      28.83
C       6.37       7.26      27.42
C       6.23       8.48      26.74
C       6.09       9.70      27.42
C       6.14       9.68      28.83
C       5.92      10.93      26.58
C       6.54       6.03      26.58
C       5.77      10.94       3.46
C       6.69       6.02       3.46
C      -2.20       8.48      10.70
C      -3.35       8.85      11.47
C      -3.37       8.86      12.89
C      -2.20       8.48      13.58
C      -1.04       8.10      12.89
C      -1.06       8.11      11.47
C      -2.20       8.48       9.23
C      -3.29       9.00       8.46
C      -3.33       8.98       7.05
C      -2.20       8.48       6.37
C      -1.08       7.99       7.05
C      -1.11       7.97       8.46
C       0.07       7.53       6.21
C      -4.48       9.43       6.21
C       0.16       7.65      13.65
C      -4.57       9.31      13.65
C      10.45       1.17      20.89
C      11.34       1.98      21.66
C      11.36       1.99      23.07
C      10.45       1.17      23.76
C       9.54       0.36      23.07
C       9.56       0.37      21.66
C      10.45       1.17      19.42
C      11.44       1.86      18.65
C      11.44       1.90      17.24
C      10.45       1.17      16.55
C       9.46       0.45      17.23
C       9.46       0.49      18.65
C       0.05      14.29      16.40
C      12.41       2.67      16.40
C       0.11      14.16      23.83
C      12.35       2.80      23.83
C       7.12       1.37      24.72
C       6.74       2.29      26.90
C       6.89       3.60      26.40
C       7.28       2.68      24.20
C       7.53       2.95      22.86
C       8.07      11.27       4.35
C       9.12      10.48       3.83
C       9.24      10.14       2.49
C      -0.71       5.50      14.54
C      -1.32       4.71      16.71
C      -1.92       4.98      14.02
C      -2.28       5.06      12.68
C      13.78       0.98      24.72
C      14.16       0.05      26.90
C       5.57      13.36      26.40
C       5.19      14.28      24.20
C       4.94      14.01      22.86
C       4.40       5.70       4.35
C       3.41       5.82       6.52
C       2.35       6.61       6.02
C       3.35       6.49       3.83
C       3.24       6.85       2.49
C      -3.70      11.46      14.54
C      -3.09      12.25      16.71
C      -1.89      12.78      16.21
C      -2.49      11.98      14.01
C      -2.13      11.90      12.68
C      14.35       4.18       1.21
C      10.11      10.35      21.58
C       9.05      11.13      22.09
C       6.24       8.48      16.07
C       6.49       7.30      16.84
C       6.48       7.28      18.25
C       6.24       8.48      18.95
C       5.99       9.68      18.26
C       5.98       9.66      16.84
C       6.23       8.48      14.60
C       6.33       7.28      13.83
C       6.37       7.26      12.42
C       6.23       8.48      11.74
C       6.09       9.70      12.42
C       6.14       9.68      13.83
C       5.92      10.93      11.58
C       6.54       6.03      11.58
C       5.77      10.94      19.02
C       6.69       6.02      19.01
C      -2.20       8.48      26.26
C      -3.35       8.85      27.03
C      -3.37       8.86      28.44
C      -2.20       8.48      29.14
C      -1.04       8.10      28.44
C      -1.06       8.11      27.03
C      -2.20       8.48      24.79
C      -3.29       9.00      24.02
C      -3.33       8.98      22.61
C      -2.20       8.48      21.93
C      -1.08       7.99      22.61
C      -1.11       7.97      24.02
C       0.07       7.53      21.77
C      -4.48       9.43      21.77
C       0.16       7.65      29.20
C      -4.57       9.31      29.20
C      10.45       1.17       5.89
C      11.34       1.98       6.66
C      11.36       1.99       8.07
C      10.45       1.17       8.76
C       9.54       0.36       8.07
C       9.56       0.37       6.66
C      10.45       1.17       4.42
C      11.44       1.86       3.65
C      11.44       1.90       2.24
C      10.45       1.17       1.55
C       9.46       0.45       2.23
C       9.46       0.49       3.65
C       0.05      14.29       1.40
C      12.41       2.67       1.40
C       0.11      14.16       8.83
C      12.35       2.80       8.83
C       7.12       1.37       9.72
C       6.74       2.29      11.90
C       6.89       3.60      11.40
C       7.28       2.68       9.20
C       7.53       2.95       7.86
C       8.07      11.27      19.91
C       9.12      10.48      19.39
C       9.24      10.14      18.05
C      -0.71       5.50      30.09
C      -1.32       4.71       1.71
C      -1.92       4.98      29.57
C      -2.28       5.06      28.24
C      13.78       0.98       9.72
C      14.16       0.05      11.90
C       5.57      13.36      11.40
C       5.19      14.28       9.20
C       4.94      14.01       7.86
C       4.40       5.70      19.90
C       3.41       5.82      22.08
C       2.35       6.61      21.58
C       3.35       6.49      19.39
C       3.24       6.85      18.05
C      -3.70      11.46      30.09
C      -3.09      12.25       1.71
C      -1.89      12.78       1.21
C      -2.49      11.98      29.57
C      -2.13      11.90      28.24
H      11.41       8.93      13.15
H      12.85       5.77      12.81
H      10.77       9.14       7.45
H       9.01      11.39       7.52
H       6.70       6.42       0.83
H       5.77      10.54       0.83
H       6.24       8.48       4.41
H       6.37       6.37      29.29
H       6.23       8.48      25.71
H       6.10      10.59      29.29
H       6.81      11.01      25.95
H       5.06      10.74      25.93
H       7.40       6.22      25.92
H       5.65       5.94      25.96
H       5.39      10.73       4.46
H       5.00      11.53       2.96
H       7.07       6.23       4.46
H       7.47       5.42       2.96
H      -4.22       9.11      11.02
H      -0.19       7.85      11.02
H      -2.20       8.48      14.60
H      -4.10       9.42       8.92
H      -2.20       8.48       5.34
H      -0.31       7.55       8.92
H      -0.30       6.72       5.59
H       0.34       8.37       5.56
H      -4.75       8.60       5.55
H      -4.11      10.25       5.59
H       0.16       8.09      14.65
H       1.06       8.03      13.15
H      -4.57       8.88      14.65
H      12.00       2.61      21.20
H       0.46      14.35      21.20
H      10.45       1.17      24.79
H      12.21       2.34      19.11
H      10.45       1.18      15.53
H       8.69       0.00      19.11
H       7.96       0.41      15.77
H       0.64      13.64      15.74
H      11.82       3.32      15.74
H      12.94       1.94      15.77
H       0.49      13.93      24.83
H      -0.01      13.19      23.34
H      11.98       3.03      24.83
H      12.47       3.77      23.34
H       6.53       2.13      27.88
H       9.00       4.12      22.99
H       7.61       4.77      27.82
H       6.73       0.25      23.06
H       9.49       8.27       2.62
H       7.30      12.16       2.69
H      -1.07       4.61      17.70
H      12.97       4.22      17.64
H       0.45       5.72      12.87
H      14.36       0.22      27.88
H       3.46      12.86      23.00
H       4.85      12.19      27.82
H      14.17       2.09      23.06
H       3.44       5.56       7.51
H       2.97       8.71       2.62
H       1.70       7.82       7.45
H       5.16       4.80       2.68
H      -3.34      12.35      17.70
H      -0.38      11.21      12.81
H      -0.51      12.74      17.64
H      -4.86      11.24      12.87
H      11.41       8.93      28.71
H      12.85       5.77      28.37
H      10.77       9.14      23.01
H       9.01      11.39      23.07
H       6.70       6.42      16.39
H       5.77      10.54      16.39
H       6.24       8.48      19.97
H       6.37       6.37      14.29
H       6.23       8.48      10.71
H       6.10      10.59      14.29
H       6.81      11.01      10.95
H       5.06      10.74      10.93
H       7.40       6.22      10.92
H       5.65       5.94      10.96
H       5.39      10.73      20.02
H       5.00      11.53      18.52
H       7.07       6.23      20.02
H       7.47       5.42      18.52
H      -4.22       9.11      26.58
H      -0.19       7.85      26.58
H      -2.20       8.48      30.16
H      -4.10       9.42      24.48
H      -2.20       8.48      20.90
H      -0.31       7.55      24.48
H      -0.30       6.72      21.14
H       0.34       8.37      21.11
H      -4.75       8.60      21.11
H      -4.11      10.25      21.15
H       0.16       8.09      30.21
H       1.06       8.03      28.71
H      -4.57       8.88      30.21
H      12.00       2.61       6.20
H       0.46      14.35       6.20
H      10.45       1.17       9.79
H      12.21       2.34       4.11
H      10.45       1.18       0.53
H       8.69       0.00       4.11
H       7.96       0.41       0.77
H       0.64      13.64       0.74
H      11.82       3.32       0.74
H      12.94       1.94       0.77
H       0.49      13.93       9.83
H      -0.01      13.19       8.34
H      11.98       3.03       9.83
H      12.47       3.77       8.34
H       6.53       2.13      12.88
H       9.00       4.12       7.99
H       7.61       4.77      12.82
H       6.73       0.25       8.06
H       9.49       8.27      18.18
H       7.30      12.16      18.25
H      -1.07       4.61       2.70
H      12.97       4.22       2.64
H       0.45       5.72      28.43
H      14.36       0.22      12.88
H       3.46      12.86       8.00
H       4.85      12.19      12.82
H      14.17       2.09       8.06
H       3.44       5.56      23.07
H       2.97       8.71      18.18
H       1.70       7.82      23.01
H       5.16       4.80      18.24
H      -3.34      12.35       2.70
H      -0.38      11.21      28.36
H      -0.51      12.74       2.64
H      -4.86      11.24      28.43
N      14.12       4.35      14.88
N      10.09      10.07       4.69
N      13.44       3.51      17.07
N       6.85       1.24      26.05
N       7.15       3.72      25.06
N       6.76       4.72      27.26
N       7.21       0.17      23.96
N       8.08      11.56       5.68
N      11.15       9.91       6.89
N       6.99      11.79       3.59
N      -0.46       5.34      15.86
N       0.28       6.17      13.78
N      14.04       1.11      26.05
N       5.31      13.24      25.06
N       5.71      12.24      27.26
N      13.69       2.17      23.96
N       4.38       5.40       5.67
N       2.38       6.90       4.69
N       1.31       7.06       6.89
N       5.48       5.17       3.59
N      -3.95      11.63      15.86
N      -1.65      12.61      14.88
N      -0.98      13.45      17.07
N      -4.69      10.79      13.78
N      14.12       4.35      30.44
N      10.09      10.07      20.25
N      13.44       3.51       2.07
N       6.85       1.24      11.05
N       7.15       3.72      10.06
N       6.76       4.72      12.26
N       7.21       0.17       8.96
N       8.08      11.56      21.24
N      11.15       9.91      22.45
N       6.99      11.79      19.15
N      -0.46       5.34       0.86
N       0.28       6.17      29.34
N      14.04       1.11      11.05
N       5.31      13.24      10.06
N       5.71      12.24      12.26
N      13.69       2.17       8.96
N       4.38       5.40      21.23
N       2.38       6.90      20.25
N       1.31       7.06      22.44
N       5.48       5.17      19.15
N      -3.95      11.63       0.86
N      -1.65      12.61      30.44
N      -0.98      13.45       2.07
N      -4.69      10.79      29.34
O      13.43       5.30      12.33
O       9.56      11.04       1.73
O       6.60       2.77      22.09
O       8.31       3.84      22.51
O       9.61       9.01       2.14
O      -1.66       4.33      11.91
O       5.88      14.19      22.10
O       4.15      13.13      22.52
O       2.90       5.95       1.74
O       2.86       7.97       2.15
O      -2.75      12.62      11.91
O      -0.97      11.67      12.33
O      13.43       5.30      27.89
O       9.56      11.04      17.29
O       6.60       2.77       7.09
O       8.31       3.84       7.51
O       9.61       9.01      17.70
O      -1.66       4.33      27.47
O       5.88      14.19       7.10
O       4.15      13.13       7.52
O       2.90       5.95      17.30
O       2.86       7.97      17.70
O      -2.75      12.62      27.47
O      -0.97      11.67      27.88
