300

C       7.19       6.00      13.62
C       6.87       4.48      11.82
C       5.05       5.79      12.60
C       7.40       3.60      10.86
C       3.81       6.41      12.34
C       8.07       6.69      14.47
C      12.23      12.46      14.01
C      12.47      14.02      12.23
C      14.02      12.23      12.46
C      11.95      15.06      11.44
C      15.06      11.44      11.93
C      11.44      11.93      15.05
C      11.81       6.89       4.49
C      12.58       5.06       5.80
C      13.61       7.20       6.01
C      12.32       3.82       6.42
C      14.46       8.08       6.70
C      10.86       7.42       3.61
C       5.81      12.59       5.06
C       6.03      13.61       7.20
C       4.50      11.81       6.88
C       6.72      14.45       8.08
C       3.62      10.86       7.42
C       6.42      12.33       3.81
C      18.01       8.99       9.81
C      17.22       8.15       9.00
C      15.91       8.49       8.61
C      15.30       9.64       9.21
C      16.09      10.51      10.03
C      17.45      10.20      10.32
C       0.69       8.70       9.88
C       1.22       7.55      10.53
C       2.64       7.37      10.54
C       3.51       8.31       9.90
C       2.95       9.45       9.25
C       1.55       9.61       9.23
C       9.83      18.01       8.99
C       9.02      17.22       8.15
C       8.63      15.91       8.49
C       9.22      15.30       9.64
C      10.05      16.09      10.51
C      10.33      17.45      10.20
C       9.89       0.68       8.70
C      10.53       1.23       7.55
C      10.53       2.64       7.37
C       9.88       3.51       8.31
C       9.24       2.94       9.45
C       9.23       1.55       9.61
C       8.99       9.82      18.01
C       8.14       9.00      17.22
C       8.49       8.60      15.91
C       9.63       9.20      15.30
C      10.50      10.03      16.08
C      10.19      10.32      17.44
C       8.70       9.89       0.68
C       7.55      10.53       1.22
C       7.37      10.54       2.64
C       8.31       9.90       3.51
C       9.45       9.25       2.94
C       9.61       9.24       1.54
C      16.19      15.00       3.91
C      15.87      13.48       2.11
C      14.05      14.79       2.89
C      16.40      12.60       1.15
C      12.81      15.41       2.63
C      17.07      15.69       4.76
C       2.52       2.75       4.30
C       2.75       4.30       2.52
C       4.30       2.52       2.74
C       2.23       5.35       1.73
C       5.35       1.73       2.22
C       1.73       2.22       5.34
C       2.10      15.89      13.49
C       2.87      14.06      14.80
C       3.89      16.20      15.01
C       2.61      12.82      15.42
C       4.74      17.08      15.70
C       1.14      16.42      12.61
C      14.81       2.88      14.06
C      15.03       3.89      16.20
C      13.50       2.10      15.88
C      15.72       4.74      17.08
C      12.62       1.15      16.42
C      15.42       2.62      12.81
C       8.30      17.99       0.10
C       7.51      17.15      18.00
C       6.20      17.49      17.61
C       5.59      18.64      18.21
C       6.38       0.79       0.32
C       7.74       0.49       0.61
C       9.69      17.70       0.17
C      10.22      16.55       0.81
C      11.64      16.37       0.82
C      12.51      17.31       0.19
C      11.95      18.45      18.25
C      10.55      18.61      18.23
C       0.11       8.30      17.99
C      18.02       7.51      17.15
C      17.63       6.20      17.49
C      18.22       5.59      18.64
C       0.33       6.38       0.79
C       0.62       7.74       0.49
C       0.18       9.68      17.70
C       0.82      10.23      16.55
C       0.82      11.64      16.37
C       0.17      12.51      17.31
C      18.24      11.94      18.45
C      18.23      10.55      18.61
C      17.99       0.11       8.29
C      17.14      18.00       7.51
C      17.49      17.60       6.20
C      18.63      18.20       5.59
C       0.78       0.32       6.37
C       0.48       0.61       7.73
C      17.70       0.18       9.68
C      16.55       0.82      10.22
C      16.37       0.83      11.64
C      17.31       0.19      12.51
C      18.45      18.25      11.94
C      18.61      18.24      10.54
H      17.66       7.33       8.57
H       1.16      10.44       8.77
H       0.38      10.80      11.41
H      17.85      11.88      11.44
H       0.76       5.89      11.65
H      18.17       6.81      11.25
H       5.27       7.29      10.17
H       5.44       8.66       9.29
H      13.48      10.50       9.63
H      13.37       9.08       8.83
H       4.51      10.70       9.20
H       3.54       5.63      10.52
H      14.99      12.16      10.07
H      15.58       6.74       7.67
H       8.58      17.66       7.33
H       8.77       1.15      10.44
H      11.41       0.38      10.81
H      11.45      17.85      11.88
H      11.66       0.77       5.90
H      11.27      18.17       6.82
H      10.14       5.27       7.28
H       9.26       5.44       8.65
H       9.65      13.48      10.50
H       8.85      13.37       9.08
H       9.18       4.51      10.70
H      10.50       3.56       5.63
H      10.08      14.99      12.16
H       7.68      15.57       6.74
H       7.33       8.57      17.67
H      10.44       8.79       1.15
H      10.80      11.42       0.36
H      11.87      11.45      17.83
H       5.89      11.66       0.76
H       6.81      11.26      18.16
H       7.29      10.16       5.27
H       8.66       9.29       5.44
H      10.49       9.61      13.47
H       9.07       8.81      13.37
H      10.71       9.21       4.50
H       5.63      10.51       3.55
H      12.15      10.07      14.96
H       6.74       7.66      15.59
H       7.95      16.33      17.57
H      10.16       0.72      17.77
H       9.38       1.09       1.70
H       8.13       2.16       1.73
H       9.76      14.89       1.94
H       8.45      15.81       1.54
H      14.27      16.29       0.46
H      14.44      17.66      18.29
H       3.77       0.79      18.63
H       3.66      18.08      17.83
H      13.51       0.99      18.20
H      12.54      14.63       0.81
H       5.28       2.45       0.35
H       5.86      15.74      16.67
H      17.58       7.95      16.33
H      17.77      10.15       0.73
H       1.70       9.38       1.10
H       1.74       8.14       2.17
H       1.95       9.77      14.90
H       1.56       8.46      15.82
H       0.42      14.27      16.28
H      18.26      14.44      17.65
H      18.65       3.77       0.79
H      17.85       3.66      18.08
H      18.18      13.51       0.99
H       0.79      12.56      14.63
H       0.36       5.28       2.45
H      16.68       5.86      15.74
H      16.33      17.57       7.96
H       0.73      17.79      10.15
H       1.09       1.71       9.36
H       2.16       1.73       8.11
H      14.89       1.94       9.76
H      15.81       1.55       8.45
H      16.29       0.45      14.27
H      17.66      18.29      14.44
H       0.77      18.61       3.76
H      18.07      17.81       3.66
H       0.99      18.21      13.50
H      14.63       0.80      12.55
H       2.43       0.36       5.25
H      15.74      16.66       5.88
N       7.67       5.09      12.73
N       5.57       4.85      11.77
N       5.88       6.35      13.52
N      11.81      13.55      13.33
N      13.56      13.33      11.81
N      13.33      11.80      13.55
N      11.75       5.58       4.86
N      13.50       5.89       6.37
N      12.72       7.68       5.10
N       6.38      13.51       5.89
N       5.11      12.72       7.68
N       4.87      11.76       5.58
N      13.94       9.80       9.15
N       4.86       8.10       9.83
N      18.19      11.03      11.11
N       0.41       6.67      11.18
N       3.70      10.46       8.72
N       3.16       6.27      11.15
N      15.51      11.57      10.65
N      15.29       7.68       7.70
N       9.17      13.94       9.80
N       9.80       4.86       8.09
N      11.12      18.20      11.04
N      11.19       0.42       6.67
N       8.70       3.69      10.45
N      11.13       3.16       6.26
N      10.66      15.51      11.58
N       7.72      15.29       7.68
N       9.78       9.14      13.94
N       8.10       9.82       4.85
N      11.03      11.12      18.18
N       6.67      11.19       0.41
N      10.46       8.72       3.69
N       6.26      11.14       3.16
N      11.56      10.64      15.49
N       7.67       7.69      15.30
N      16.67      14.09       3.02
N      14.57      13.85       2.05
N      14.88      15.35       3.81
N       2.10       3.84       3.62
N       3.85       3.62       2.09
N       3.62       2.09       3.84
N       2.04      14.58      13.86
N       3.79      14.89      15.37
N       3.01      16.68      14.10
N      15.38       3.79      14.89
N      14.11       3.01      16.68
N      13.87       2.05      14.58
N       4.23       0.09      18.15
N      13.86      17.10       0.11
N       8.48       1.32       1.40
N       9.41      15.67       1.47
N      12.70       0.74      17.72
N      12.16      15.27       1.44
N       5.79       1.86       0.94
N       5.58      16.68      16.70
N      18.17       4.23       0.09
N       0.08      13.86      17.09
N       1.41       8.48       1.33
N       1.48       9.42      15.67
N      17.70      12.69       0.74
N       1.42      12.16      15.26
N       0.95       5.79       1.86
N      16.72       5.58      16.68
N       0.07      18.14       4.23
N      17.10       0.11      13.85
N       1.32       1.41       8.46
N      15.67       1.47       9.41
N       0.75      17.72      12.69
N      15.26       1.43      12.16
N       1.85       0.93       5.77
N      16.67      16.69       5.59
O       3.43       7.42      13.17
O       9.39       6.35      14.41
O       6.53       2.86      10.14
O      15.46      10.38      12.69
O      10.39      12.69      15.45
O      12.70      15.47      10.39
O      14.40       9.39       6.36
O      10.13       6.55       2.87
O      13.15       3.43       7.42
O       2.87      10.14       6.54
O       7.42      13.16       3.43
O       6.38      14.39       9.39
O      12.43      16.42       3.46
O      18.39      15.35       4.69
O      15.53      11.86       0.43
O       5.75       0.67       2.98
O       0.67       2.98       5.74
O       2.99       5.76       0.68
O       4.68      18.39      15.36
O       0.42      15.55      11.87
O       3.44      12.43      16.42
O      11.87       0.42      15.54
O      16.42       3.45      12.43
O      15.38       4.68      18.39
