28

Ba      -0.02       7.30       6.73
Ba      -4.11       5.94       8.09
P      -1.90       9.61       8.31
P       1.87       5.74       4.42
P      -1.76       8.58       3.15
P      -2.22       3.63       6.51
P      -2.38       4.57      11.67
P       1.76      10.89       5.43
P       2.13       7.57      10.61
P      -5.88       2.35       9.37
C      -2.81      10.92       7.34
C      -1.29       2.29       7.42
C       2.83       6.68       3.16
O      -0.48       9.84       7.90
O       1.86       4.01       4.13
O      -3.65       3.40       6.92
O      -1.67       5.07       6.81
O      -5.78       4.09       9.30
O      -2.27       3.36       4.79
O       1.64       7.21       8.97
O      -2.45       4.72       9.93
O      -2.45       8.18       8.01
O       2.42       6.03       5.85
O      -4.58       7.09      10.63
O       1.65       9.15       5.52
O      -2.05      10.01      10.01
O       0.45       6.15       4.19
O      -1.68       8.52       4.88
