44

H       4.81       0.29      14.61
H       5.62       0.77      10.29
O       1.38       4.94      16.44
O       1.38       3.66      18.33
H       6.82       1.45       3.52
H       6.00       0.98       7.84
H       4.66       5.20       3.52
H       3.84       4.72       7.84
H       2.65       4.04      14.61
H       3.47       4.50      10.28
H       2.78       1.61      18.16
H       6.69       3.87      -0.04
C       4.26      -0.43      17.13
C       3.86       0.84      16.46
C       4.22       1.04      15.12
C       5.24       1.63       9.75
C       7.72       1.57       0.99
C       6.81       2.55       1.67
C       6.46       2.34       3.01
C       5.45       1.75       8.38
C       5.21       5.92       1.00
C       5.61       4.64       1.67
C       5.25       4.44       3.01
C       4.23       3.86       8.38
C       1.75       3.92      17.13
C       2.65       2.94      16.46
C       3.01       3.15      15.12
C       4.02       3.74       9.75
C       3.08       1.79      17.13
C       3.78       2.20      14.43
C       4.08       2.37      13.05
C       4.29       2.49      11.85
C       4.52       2.62      10.46
C       6.39       3.70       0.99
C       5.69       3.29       3.70
C       5.39       3.12       5.08
C       5.18       3.00       6.27
C       4.95       2.87       7.67
O       4.95      -1.26      16.44
O       3.85      -0.61      18.33
O       8.09       0.55       1.69
O       8.09       1.83      -0.20
O       4.52       6.74       1.69
O       5.62       6.10      -0.20
