16

C       2.69       4.51       8.50
C       2.85       4.58       9.88
O       2.59       2.04       5.84
O       2.59       4.31       5.71
C       3.32       3.49      12.10
C       2.65       3.20       6.35
C       3.15       3.42      10.62
H       3.49       1.30      10.54
H       3.19       1.17       8.05
H       2.46       5.40       7.92
H       2.75       5.52      10.42
C       3.27       2.19       9.95
O       3.33       4.65      12.63
O       3.45       2.38      12.72
C       3.10       2.12       8.57
C       2.82       3.28       7.84
