20

H       5.31       7.02      13.43
H       5.49       9.51      13.37
H       1.89       9.67      15.78
H       1.83       7.17      15.64
H       5.96      13.92      14.57
H       5.95      11.42      14.52
H       1.63      11.61      14.70
H       1.83      14.08      14.81
N       3.57       7.00      14.55
N       3.90      14.10      14.70
C       4.57       7.65      13.93
C       4.67       9.04      13.91
C       3.71       9.81      14.58
C       2.66       9.13      15.22
C       2.63       7.74      15.17
C       5.02      13.36      14.60
C       5.01      11.97      14.56
C       3.78      11.29      14.61
C       2.62      12.07      14.69
C       2.72      13.45      14.73
