20

C       8.62       2.02      18.21
C       8.64       3.41      18.28
C       9.87       4.08      18.29
C      11.03       3.30      18.25
C      10.93       1.92      18.17
C       9.05       7.72      18.91
C       8.94       6.34      18.93
C       9.94       5.56      18.33
C      11.03       6.24      17.74
C      11.06       7.63      17.79
N       9.75       1.27      18.15
N      10.08       8.37      18.34
H       7.69       1.46      18.20
H       7.69       3.95      18.29
H      12.02       3.76      18.29
H      11.82       1.29      18.13
H       8.28       8.36      19.36
H       8.10       5.87      19.43
H      11.82       5.69      17.24
H      11.89       8.19      17.37
