16

C       1.78      11.82      18.10
C       7.58      11.88      18.18
O       1.21      10.68      18.12
O       1.19      12.95      18.06
H       3.41      13.97      17.83
H       5.90      14.00      17.89
C       3.28      11.84      18.12
O       8.15      13.02      18.11
C       5.36      13.07      18.00
C       6.08      11.87      18.16
C       5.39      10.66      18.29
C       3.99      10.64      18.27
H       3.45       9.71      18.38
O       8.15      10.75      18.25
C       3.97      13.05      17.98
H       5.95       9.74      18.40
