18

Er       6.25       4.44       9.90
C       6.21       4.54       6.45
C       3.60       2.61       8.75
N       5.43       6.61       8.88
N       4.23       7.20       9.08
N       7.05       4.58       7.50
N       8.25       4.17       7.02
N       6.27       2.75      12.34
O       7.91       5.86      10.45
O       5.47       2.54      11.36
O       4.62       3.37       8.76
C       8.49       1.83       9.91
O       7.04       3.78      12.21
O       7.62       2.69       9.56
O       4.85       5.39      11.38
C       6.27       7.61       8.55
C       4.00       5.32      12.32
C       8.95       6.12      11.14
