38

C       8.33      10.87      10.76
C       8.33      12.42      10.65
C       8.32      12.84       9.16
C       8.31      10.11       7.90
N       9.05      10.36      14.29
N       9.71      16.30       8.88
N       7.63      10.35      14.30
N       6.90      16.30       8.93
H      10.45      10.52      12.67
H      10.41      14.38       9.20
H       9.22      12.82      11.15
H       6.15      12.60       8.96
N       8.33      10.51      12.20
N       8.32      14.35       9.04
H       7.04      12.55       7.43
H       6.16      10.29       8.15
H       6.17      10.71      10.56
H       7.04       9.21      10.19
H       6.22      10.51      12.67
H       6.24      14.37       9.24
H       7.45      12.83      11.16
H      10.48      12.59       8.93
H       9.58      12.54       7.42
H      10.46      10.29       8.12
H      10.49      10.70      10.53
H       9.60       9.20      10.17
H       8.30      10.38       6.83
H       8.31       9.01       7.96
C       9.43      10.44      13.01
C       9.55      15.03       9.04
C       7.07      12.23       8.48
C       7.07      10.69       8.60
C       7.07      10.30      10.09
C       7.24      10.44      13.02
C       7.09      15.03       9.07
C       9.56      12.23       8.47
C       9.55      10.69       8.58
C       9.57      10.29      10.07
