38

N       6.81       6.15       6.77
N       7.59       0.27       1.71
H       6.27       6.41       4.82
H       6.17       1.86       1.65
H       7.43       3.95       3.89
H      10.46       3.99       1.70
H       9.59       3.93       0.16
H      10.44       6.25       0.68
N       9.87       6.16       6.75
H       9.53       7.50       2.62
H      10.49       6.06       3.07
N       8.99       0.27       1.72
N       8.33       6.24       4.87
N       8.29       2.35       1.89
H      10.40       6.33       4.79
H      10.42       1.85       1.69
H       9.20       3.95       3.88
H       6.14       4.01       1.73
H       6.99       3.94       0.18
H       6.16       6.27       0.71
H       6.15       6.07       3.10
H       7.11       7.51       2.64
H       8.29       5.96      -0.61
H       8.30       7.46       0.36
C       7.09       6.26       5.52
C       7.19       1.54       1.83
C       9.56       4.34       1.18
C       9.53       5.88       1.17
C       9.55       6.40       2.62
C       9.58       6.24       5.50
C       9.39       1.53       1.85
C       7.04       4.35       1.20
C       7.07       5.89       1.19
C       7.08       6.41       2.64
C       8.32       5.87       3.39
C       8.31       4.33       3.36
C       8.30       3.83       1.91
C       8.30       6.37       0.41
