13

S       0.76       3.73      13.01
H       3.54       1.47      13.65
H       3.83       2.71      11.33
O       0.56       5.04      10.34
O       2.75       4.96       9.88
O      -0.04       2.38      15.48
O       1.95       1.40      15.94
C       1.73       4.61      10.58
C       1.95       3.74      11.74
C       3.00       2.87      12.01
C       2.85       2.21      13.25
C       1.69       2.58      13.91
C       1.16       2.09      15.20
