15

H       3.99       4.06      11.28
C       5.37       2.03      12.68
H       6.92       3.37      11.98
O       6.81       5.65      10.74
O       4.75       6.26      10.21
O       4.77       0.66      10.75
O       6.85       0.55      11.49
C       5.57       5.36      10.67
H       5.17       3.37      10.18
C       5.86       3.43      12.25
H       5.78       4.10      13.11
C       5.67       1.02      11.61
H       5.90       1.72      13.58
H       4.29       2.03      12.88
C       5.07       4.01      11.07
