13

C       9.29       7.41       1.95
C       9.67       8.63       1.41
C      10.98       9.03       3.39
C      10.57       7.79       3.86
N       9.74       6.98       3.16
H       8.60       6.75       1.43
H       9.32       8.95       0.43
H      11.65       9.67       3.97
O      11.54      11.60       2.34
O      10.63      11.01       0.34
H      10.89       7.40       4.82
C      10.53       9.46       2.13
C      10.93      10.79       1.56
