13

H      -0.38       1.92       4.75
O      -0.34       1.11       7.38
O      -0.56       2.91       8.81
H      -0.77       4.31       3.37
C      -1.16       6.54       5.18
O      -1.47       6.88       3.99
C      -0.95       5.10       5.38
O      -0.99       7.32       6.19
O      -0.86       4.57       6.65
C      -0.50       2.35       7.65
C      -0.63       3.22       6.48
C      -0.56       2.91       5.13
C      -0.76       4.12       4.43
