13

H      10.88       3.69       9.10
C      10.89       6.82       7.80
C      11.46       7.46       8.90
C      11.04       4.76       9.02
C      11.60       5.48      10.08
O       9.82       5.37       5.65
O       9.79       3.47       6.93
H      10.59       7.39       6.92
H      11.66       8.53       8.88
C      10.04       4.70       6.71
H      11.87       4.99      11.01
C      10.67       5.44       7.86
N      11.81       6.81      10.03
