13

C       1.54      10.88       6.88
C       2.12      11.70       8.00
N       3.24      13.21      10.08
H       0.61      11.18       9.45
O       0.41      10.33       7.11
O       2.24      10.82       5.82
H       1.64      12.59      11.24
H       3.81      12.39       6.84
H       4.77      13.70       8.76
C       1.51      11.75       9.25
C       2.10      12.52      10.26
C       3.30      12.42       7.80
C       3.84      13.15       8.87
