13

C      -5.46      10.47      15.82
C      -4.83      11.25      16.93
H      -4.91       9.65      18.39
H      -3.84      11.04      20.18
H      -4.62      13.06      15.78
H      -3.63      14.34      17.70
C      -4.61      10.68      18.19
O      -5.68       9.23      16.04
O      -5.71      11.13      14.76
C      -4.46      12.59      16.74
C      -3.90      13.30      17.80
C      -4.04      11.45      19.20
N      -3.68      12.75      19.02
