13

C      -3.60      11.19       3.19
H      -2.93      11.35       1.15
C      -2.48      10.29       3.62
H      -4.94      12.72       0.45
O      -1.92       9.62       2.71
C      -4.59      11.59       4.10
C      -5.67      12.32       3.63
N      -5.80      12.69       2.33
C      -3.71      11.62       1.86
O      -2.24      10.27       4.89
C      -4.81      12.37       1.47
H      -4.52      11.28       5.14
H      -6.48      12.62       4.29
