13

H       5.51      13.79       3.45
H       3.54      12.50       4.37
H       7.09      10.06       2.01
C       5.21       9.98       3.08
H       5.08       8.90       3.02
N       4.22      10.66       3.70
O       8.11      12.16       1.00
C       6.42      12.02       2.64
C       7.55      12.75       1.97
O       7.79      13.92       2.43
C       5.43      12.71       3.34
C       4.35      12.00       3.84
C       6.32      10.62       2.53
