13

O       7.68      -4.65      12.38
O       8.00      -3.19      14.10
N       4.05      -1.31      11.63
C       6.22      -2.81      12.59
C       7.39      -3.62      13.06
H       4.14      -2.48       9.91
H       6.06      -3.89      10.74
C       4.58      -2.31      10.89
C       5.65      -3.08      11.33
H       6.11      -1.53      14.32
H       4.14      -0.23      13.39
C       5.68      -1.76      13.35
C       4.60      -1.05      12.84
