13

N      -6.40      12.99      12.64
O      -4.23      17.31      11.36
C      -5.70      15.48      11.57
C      -5.29      16.76      10.90
H      -3.74      15.08      12.39
C      -4.76      14.71      12.28
C      -5.15      13.48      12.78
H      -7.76      15.58      10.94
C      -7.01      14.99      11.46
H      -4.44      12.83      13.31
H      -8.33      13.33      11.95
C      -7.32      13.76      12.01
O      -6.02      17.13       9.93
