13

O      -2.34      -0.04       9.28
N      -5.98      -2.00      12.09
O      -2.03       0.99      11.28
C      -5.44      -2.31      10.89
C      -4.37      -1.61      10.34
C      -4.34      -0.24      12.32
C      -5.43      -0.98      12.79
H      -5.89      -3.16      10.37
H      -3.96      -1.86       9.37
H      -3.91       0.57      12.90
H      -5.89      -0.77      13.76
C      -3.80      -0.55      11.07
C      -2.64       0.19      10.49
