13

C      -3.75       5.61      12.12
H      -3.42       4.75      14.07
C      -4.93       6.44      12.56
H      -3.79       6.29      10.08
H      -1.59       3.22      13.23
C      -3.11       4.76      13.03
H      -1.92       4.73       9.38
C      -2.10       3.92      12.57
C      -3.32       5.62      10.80
O      -5.73       6.78      11.64
C      -2.29       4.77      10.41
O      -5.01       6.67      13.81
N      -1.71       3.90      11.27
