16

O       1.32       7.34       3.60
O       1.05       8.88       1.97
O       1.06       2.46       2.37
O      -0.05       1.95       0.49
C       0.60       5.90      -0.95
C       0.78       6.90       0.01
C       0.91       6.58       1.36
C       0.88       5.23       1.75
C       0.67       4.22       0.80
C       0.52       4.56      -0.56
C       1.11       7.67       2.39
C       0.55       2.79       1.23
H       0.54       6.17      -2.00
H       0.83       7.94      -0.31
H       0.99       4.99       2.80
H       0.34       3.78      -1.30
