22

C      13.41       7.61      30.26
Co       9.97      11.02      29.48
Co      12.23      12.50      28.31
Co      12.55       9.26      28.85
C      13.48      13.61      30.47
C       9.82      11.58      26.70
C      13.18      10.55      26.40
O      12.77       9.47      26.97
O       9.20      11.04      27.69
O      13.51      11.61      27.04
O      10.90      12.25      26.77
O      11.83      10.83      29.18
O       9.38      12.70      30.22
C       9.97       8.31      29.92
O       9.45       9.40      30.40
O      10.92      13.86      29.04
O      10.75       8.29      28.91
O      12.80       8.63      30.74
O      13.61       7.64      28.97
O      13.57      13.59      29.15
C       9.98      13.79      29.89
C      13.81       6.44      31.04
