22

C      11.73      17.29      20.73
Co      15.56      21.88      22.28
Co      13.29      23.35      23.46
Co      12.99      20.10      22.93
C      12.13      18.46      21.52
C      12.05      24.42      21.28
O      12.79      20.31      24.80
O      16.34      21.92      24.06
C      15.73      22.45      25.06
O      12.03      22.44      24.73
O      14.64      23.11      25.00
C      12.37      21.39      25.37
O      13.71      21.68      22.59
O      16.11      23.55      21.50
O      16.10      20.25      21.38
O      14.57      24.71      22.71
O      14.79      19.13      22.86
O      12.75      19.48      21.03
O      11.94      18.49      22.80
O      11.92      24.38      22.59
C      15.58      19.15      21.86
C      15.51      24.64      21.85
