30

H       8.90      20.22      13.22
H       8.02      16.11      12.31
H       9.00      14.10      18.43
H      11.19      15.41      21.93
H       9.06      15.40      14.49
H      11.61      17.51      18.18
H       9.95      19.50      15.41
O       8.87      12.56      20.53
N       9.75      16.02      16.85
N      10.03      17.17      16.37
O      13.06      18.32      19.90
O      12.94      17.29      21.91
O       7.73      19.87      11.05
O       7.16      17.76      10.64
O       9.34      13.73      22.37
C      12.58      17.44      20.69
C       7.72      18.63      11.40
C       8.38      18.21      12.66
C       8.94      19.17      13.51
C       8.44      16.84      13.00
C       9.39      13.60      21.10
C      10.03      14.65      20.27
C       9.70      14.79      18.91
C      10.94      15.53      20.87
C      11.54      16.54      20.11
C      10.24      15.85      18.18
C       9.52      17.42      15.08
C       9.01      16.45      14.20
C      11.18      16.71      18.77
C       9.52      18.78      14.71
