12

Ni       6.97       3.23       1.02
C       9.17       5.19       1.00
C       9.22       1.61       2.05
C       7.14       6.13       1.63
C       7.81       2.47       3.69
N       8.09       2.29       2.38
C       4.62       2.78       2.48
O       5.33       3.77       2.04
C       7.43       3.30      -1.43
N       7.85       5.05       1.26
O       8.29       2.80      -0.62
O       6.29       3.69      -1.00
