40

H       7.71      13.16       3.70
H       8.08      13.91       6.05
H       7.43      12.86       8.34
H       3.47      13.49       4.27
H       3.83      14.26       6.61
N       4.97      16.65       7.56
H       4.94      16.43       6.57
O       4.15      12.59       2.07
O       8.73      12.30      10.32
O       6.40      12.78       1.68
O       4.11      22.14      11.61
O       8.76      13.93      11.92
O       6.34      22.55      11.43
C       4.66      18.24      10.18
C       4.47      13.59       4.66
C       5.80      15.87       8.35
H       7.67      20.53      11.06
H       8.07      18.18      10.32
H       7.43      15.90      11.36
H       3.44      19.94      10.72
H       3.82      17.60       9.95
H       4.94      17.64       7.78
C       6.84      19.88      10.82
C       6.87      13.40       4.35
C       5.97      17.73      10.07
C       5.98      14.15       6.49
C       7.07      13.81       5.66
C       7.05      18.57      10.41
C       7.08      15.54      10.39
C       7.09      13.83       8.69
C       6.26      16.35       9.61
C       4.45      19.55      10.61
C       6.26      14.61       7.88
C       5.53      20.38      10.92
C       4.68      14.03       5.97
C       5.57      13.29       3.84
C       5.31      21.79      11.35
C       7.49      14.27       9.96
C       5.36      12.85       2.43
C       8.38      13.44      10.80
