584

Ni      18.95      18.70       7.68
Ni      13.67      24.37      14.92
Ni      15.35       9.59      18.82
Ni      13.77      10.75       3.77
Ni       8.48      11.24      16.81
Ni      13.75      19.45      20.93
Ni      12.09      20.35       5.67
Ni      13.69       5.83       9.78
H      16.21      21.99       5.71
H      15.03       6.94      21.24
H      16.73      24.66      14.77
H      24.32      24.48      14.60
H      18.98      19.37       3.58
H      19.82      19.26       1.26
H      12.86      24.52      21.18
H      25.03      26.33      20.51
H      16.68       4.64      22.16
H       8.23       0.95       3.17
H       8.07       0.46       1.50
H      11.10       5.37       0.55
H      12.21       5.68       2.70
H      12.68       4.92       5.01
H      11.72       2.76       5.82
H      10.25       1.43       4.39
H      17.34      20.32      14.22
H      19.28      18.91      13.76
H      21.74      18.64      13.46
H      23.23      20.61      13.68
H      22.31      22.84      14.12
H      21.20      24.72      13.59
H      19.86      25.61      14.31
H      23.74      25.98      18.70
H      21.79      26.62      20.04
H      19.32      26.83      20.31
H      17.82      26.15      18.45
H      18.75      25.34      16.32
H       8.91      14.40       3.91
H       7.57      14.96       2.93
H      20.26      15.98       7.71
H       7.63      14.54       6.01
H       8.17      18.09       3.60
H      20.76      19.36       5.37
H       9.00      16.93       2.14
H       9.58      15.37       1.65
H      10.67      16.80       4.15
H      11.38      16.95       2.54
H      13.21      13.02       5.64
H      11.86      15.14       5.52
H      11.47      14.45       1.28
H      12.68      12.34       1.58
H      20.29      21.04       6.42
H       8.52      22.43       7.03
H      21.72      21.09      11.11
H      19.95      19.58      10.28
H      10.49      21.92       9.21
H       9.74      22.63      10.64
H      16.23       2.01       9.49
H       9.63      24.04       7.90
H      11.99      23.64       8.39
H       4.74       2.62       8.61
H       5.15       3.32      13.33
H       4.24       3.46      11.03
H      13.00      22.40      10.23
H      13.86      22.43      12.59
H      18.12      12.87      16.84
H      19.29      16.05      10.10
H      10.69      11.05       3.61
H      16.85      10.89       3.44
H      15.31      10.27      14.73
H      14.47      10.14      12.41
H      14.56      10.87      10.04
H      16.13      12.68       9.37
H      17.62      13.74      11.02
H      19.21      14.57      14.31
H      19.38      14.08      12.64
H      16.34      18.99      11.68
H      15.22      19.29      13.83
H      14.75      18.53      16.14
H      15.72      16.37      16.95
H      17.19      15.04      15.52
H      10.08       6.71       3.05
H       8.15       5.29       2.61
H       5.68       5.02       2.32
H       4.19       6.99       2.54
H       5.11       9.22       2.99
H       6.22      11.11       2.45
H       7.56      12.00       3.15
H      17.42      12.35       7.57
H      19.37      13.01       8.90
H       8.11      13.21       9.17
H       9.61      12.53       7.31
H       8.68      11.72       5.18
H      11.67       5.29      15.04
H      13.00       5.85      14.06
H      14.04       6.86      18.85
H      12.94       5.43      17.14
H      12.40       8.98      14.74
H      13.54      10.25      16.51
H      11.57       7.82      13.27
H      11.00       6.26      12.78
H       9.90       7.69      15.28
H       9.19       7.83      13.67
H       7.37       3.91      16.78
H       8.71       6.04      16.65
H       9.10       5.34      12.41
H       7.90       3.22      12.73
H      14.00      11.93      17.57
H      12.04      13.32      18.18
H      12.58      11.98      22.26
H      14.35      10.46      21.43
H      10.07      12.82      20.36
H      10.82      13.52      21.79
H      11.23      15.64      20.64
H      10.94      14.93      19.06
H      22.32      14.54      19.53
H      22.72      16.25      19.75
H      15.42      12.45       2.18
H      23.20      17.09      22.17
H      21.31      13.29      21.37
H      13.58       8.81       1.44
H      11.26       9.94      20.41
H      12.42      22.20       2.59
H      24.40      19.35      21.25
H      16.83      19.16      21.14
H       8.45       7.36      18.29
H       7.60       5.06      18.62
H      14.54      25.62      19.81
H      16.11      25.32      21.71
H      10.76      22.63       0.14
H       5.50       3.29       0.30
H       5.67       1.56       0.15
H       2.62       1.59       5.15
H      15.24       3.76       5.02
H      14.77       5.88       3.81
H      15.74       6.24       1.54
H       3.47       4.57       0.52
H      10.06      17.95      17.11
H      21.86      17.23      15.81
H      19.40      16.89      15.60
H      17.91      17.50      17.49
H      18.82      18.38      19.59
H      19.94      18.22      21.54
H      21.28      19.09      22.28
H      17.40      23.49      21.75
H      19.35      24.93      22.12
H      21.82      25.23      22.27
H      23.32      23.27      21.97
H      22.40      21.02      21.60
H      18.53       6.68      13.34
H       6.13       5.83      14.09
H       7.17      10.72      14.13
H       6.07       8.77      13.06
H      19.26       7.12      17.02
H      20.40       9.10      17.91
H      18.44       5.45      16.18
H      17.87       4.66      14.74
H      16.76       7.39      15.64
H      16.05       5.84      16.11
H      14.23       8.11      11.65
H      15.57       8.40      13.76
H      15.97       4.11      13.91
H      14.77       4.00      11.77
H      20.87      10.47      19.35
H      18.91      11.35      20.59
H      19.45      15.08      18.46
H      21.22      13.97      17.14
H      16.94      13.39      19.66
H      17.69      14.93      20.07
H      11.24       9.71       0.09
H      17.81      12.53      21.99
H      15.45      12.91      21.51
H       9.00       8.96       0.86
H       8.55      13.72       0.63
H       9.48      11.50       1.21
H      14.44      14.47      19.93
H      13.56      16.78      19.50
H       9.34      19.07       9.28
H       8.16      13.08      13.73
H      16.75       5.74      10.10
H      10.61       5.54       9.96
H      12.11      16.46       7.14
H      12.96      14.17       7.48
H      12.88      12.00       8.68
H      11.31      11.70      10.60
H       9.81      13.53      11.29
H       8.21      16.92      11.44
H       8.05      15.19      11.29
H      11.09      15.23      16.30
H      12.19      17.40      16.18
H      12.66      19.51      14.97
H      11.70      19.87      12.69
H      10.23      18.20      11.67
H       3.63       4.35       5.95
H       5.56       3.61       4.66
H       8.03       3.27       4.45
H       9.51       3.88       6.35
H       8.59       4.75       8.45
H       7.48       4.60      10.39
H       6.15       5.48      11.12
H      10.03       9.86      10.61
H       8.08      11.30      10.98
H      19.34      11.60      11.12
H      17.84       9.65      10.83
H       5.03       7.40      10.46
H      15.78      15.80       2.19
H      14.44      14.95       2.94
H      13.40      19.84       2.99
H      14.50      17.89       1.92
H      15.04      16.23       5.87
H      13.89      18.21       6.77
H      15.87      14.57       5.03
H      16.44      13.78       3.59
H      17.54      16.52       4.50
H      18.25      14.96       4.96
H       6.35      17.22       0.50
H      18.73      17.52       2.61
H      18.34      13.23       2.77
H       5.82      13.11       0.64
H      13.42      19.57       8.21
H      15.38      20.45       9.45
H      14.85      24.18       7.33
H      13.08      23.07       6.01
H      17.36      22.49       8.52
H      16.61      24.03       8.93
H      16.21      23.32      11.23
H      16.50      21.62      10.85
H      18.86      22.03      10.37
H      18.46      22.58      12.00
H      12.02       4.61      11.75
H      17.95      25.12      12.34
H      19.87      23.58       8.78
H      13.88       3.17       8.34
C      17.59      20.33       5.67
C      16.29       8.82      21.04
C      18.30      20.17       3.28
C      17.49      20.74       4.24
C      16.62      21.82       3.87
C      16.57      22.30       2.56
C      17.38      21.67       1.56
C      18.27      20.61       1.93
C      19.12      20.03       0.95
C      25.94      24.97      21.92
C      25.04      26.00      21.55
C      17.36      22.08       0.19
C       8.81       0.74       2.26
C      10.66       4.44       0.90
C       9.79       3.75       0.08
C       9.19       2.53       0.55
C       9.49       2.02       1.81
C      10.38       2.75       2.66
C      10.96       3.98       2.20
C      11.80       4.74       3.06
C      12.06       4.32       4.35
C      11.51       3.10       4.80
C      10.69       2.34       3.99
C      15.93      22.55      14.54
C      25.15      25.17      16.61
C      17.99      21.19      14.27
C      17.42      22.44      14.46
C      18.28      23.60      14.51
C      19.67      23.49      14.43
C      20.24      22.20      14.21
C      19.39      21.04      14.11
C      19.95      19.76      13.84
C      21.31      19.61      13.67
C      22.15      20.74      13.79
C      21.63      22.00      14.05
C      20.53      24.75      14.46
C      23.09      25.73      17.87
C      23.65      25.28      16.69
C      22.79      24.96      15.59
C      21.39      25.04      15.69
C      20.83      25.49      16.92
C      21.69      25.86      18.02
C      21.12      26.34      19.23
C      19.76      26.45      19.38
C      18.90      26.07      18.32
C      19.42      25.61      17.12
C       8.46      15.31       3.49
C       6.89      16.40       6.78
C       7.51      15.61       5.82
C       7.94      16.17       4.62
C       7.81      17.56       4.49
C       7.17      18.29       5.48
C       9.43      16.00       2.54
C      10.80      16.28       3.19
C      12.78      13.38       4.70
C      12.05      14.57       4.62
C      11.57      15.00       3.38
C      11.82      14.18       2.27
C      12.51      13.00       2.43
C      20.66      21.06       7.44
C      21.72      21.88       7.80
C      22.15      21.90       9.14
C      21.45      21.11      10.05
C      20.44      20.27       9.60
C       9.68      22.60       9.55
C       9.94      23.99       8.96
C      11.43      24.35       9.02
C      12.19      25.27      12.61
C       4.83       2.59      11.33
C      11.97      24.30      10.42
C      12.75      23.23      10.88
C      13.24      23.23      12.19
C      16.71      11.22      16.81
C      18.01      17.93       9.90
C      16.00      11.06      14.42
C      16.81      11.63      15.38
C      17.68      12.70      15.01
C      17.73      13.18      13.70
C      16.92      12.56      12.70
C      16.03      11.49      13.08
C      15.17      10.91      12.10
C      15.21      11.33      10.78
C      16.11      12.35      10.40
C      16.94      12.95      11.33
C      18.64      14.36      13.40
C      16.78      18.06      12.04
C      17.66      17.38      11.22
C      18.26      16.15      11.69
C      17.95      15.64      12.95
C      17.06      16.36      13.80
C      16.47      17.59      13.33
C      15.63      18.35      14.20
C      15.37      17.93      15.48
C      15.93      16.71      15.94
C      16.75      15.95      15.12
C      11.49       8.94       3.35
C      16.02      11.55       5.47
C       9.43       7.58       3.11
C      10.00       8.83       3.30
C       9.14       9.98       3.36
C       7.75       9.88       3.29
C       7.18       8.58       3.07
C       8.04       7.42       2.97
C       7.47       6.15       2.69
C       6.11       5.99       2.53
C       5.27       7.12       2.65
C       5.78       8.38       2.91
C       6.90      11.14       3.31
C      18.08      12.11       6.73
C      17.51      11.67       5.55
C       4.65      11.36       4.44
C       6.04      11.43       4.54
C       6.60      11.87       5.78
C       5.74      12.24       6.88
C       6.31      12.73       8.09
C       7.68      12.84       8.24
C       8.53      12.45       7.18
C       8.01      11.99       5.98
C      12.12       6.20      14.62
C      13.68       7.29      17.92
C      13.06       6.49      16.96
C      12.63       7.06      15.75
C      12.75       8.45      15.63
C      13.39       9.18      16.62
C      11.14       6.89      13.67
C       9.78       7.17      14.32
C       7.80       4.27      15.84
C       8.52       5.46      15.75
C       9.00       5.89      14.51
C       8.75       5.07      13.40
C       8.07       3.88      13.57
C      13.63      11.95      18.59
C      12.57      12.76      18.95
C      12.14      12.79      20.29
C      12.85      12.00      21.20
C      13.86      11.15      20.75
C      10.88      13.49      20.70
C      10.63      14.88      20.11
C      22.87      15.24      20.16
C      15.23      11.66       1.46
C      15.75      11.71       0.18
C      22.32      15.19      21.56
C      21.54      14.13      22.02
C      14.20       9.62       1.04
C       9.84       9.59      18.81
C      11.15      22.37       4.47
C       9.13       7.21      19.12
C       9.94       8.27      19.49
C      10.82       8.12      20.62
C      10.87       6.93      21.35
C      10.06       5.83      20.93
C       9.16       5.98      19.81
C       8.31       4.91      19.44
C      15.19      26.44      20.10
C      16.09      26.27      21.19
C      10.07       4.57      21.59
C       4.93       2.36       0.27
C       3.06       1.76       4.17
C       3.95       0.82       3.66
C       4.54       1.04       2.37
C       4.24       2.17       1.61
C       3.35       3.15       2.16
C       2.76       2.94       3.46
C      15.65       3.93       4.03
C      15.39       5.11       3.36
C       2.21       5.31       2.07
C       3.03       4.36       1.49
C      11.47      18.68      19.24
C      16.00      21.27      21.38
C      23.15      18.18      17.96
C      23.72      18.61      19.14
C      22.86      18.90      20.26
C      21.47      18.81      20.17
C      20.90      18.34      18.94
C      21.75      18.01      17.83
C      21.19      17.48      16.63
C      19.83      17.29      16.51
C      18.99      17.63      17.60
C      19.50      18.14      18.78
C      20.61      19.08      21.41
C      18.06      22.62      21.68
C      17.50      21.38      21.48
C      18.36      20.23      21.40
C      19.75      20.35      21.44
C      20.32      21.65      21.63
C      19.46      22.79      21.77
C      20.02      24.08      22.01
C      21.39      24.25      22.09
C      22.24      23.13      21.92
C      21.72      21.87      21.70
C      18.98       6.45      14.31
C       6.81       9.89      14.73
C       6.19       8.79      14.14
C      19.49       7.73      14.94
C      19.62       7.88      16.33
C      20.26       9.00      16.84
C      18.01       5.65      15.19
C      16.64       6.35      15.33
C      14.66       7.26      12.18
C      15.39       7.41      13.37
C      15.87       6.28      14.04
C      15.62       5.03      13.45
C      14.93       4.96      12.25
C      20.50      11.48      19.17
C      19.44      12.00      19.89
C      19.01      13.31      19.65
C      19.72      14.05      18.70
C      20.72      13.44      17.96
C      17.75      13.85      20.26
C      17.50      13.55      21.74
C      16.00      13.67      22.08
C      15.22      17.37      22.28
C       8.89      11.61       0.30
C      15.46      15.03      21.76
C      14.68      15.28      20.62
C      14.18      16.55      20.36
C      10.72      18.71       7.66
C       9.43      13.26      15.61
C      11.43      16.32       7.97
C      10.62      17.38       8.35
C       9.76      17.24       9.48
C       9.70      16.05      10.21
C      10.51      14.94       9.79
C      11.40      15.09       8.67
C      12.26      14.02       8.30
C      12.22      12.82       8.98
C      11.33      12.65      10.06
C      10.49      13.68      10.46
C       8.79      15.99      11.42
C      10.65      15.39      15.32
C       9.77      14.44      14.81
C       9.18      14.66      13.51
C       9.47      15.80      12.76
C      10.36      16.78      13.31
C      10.95      16.57      14.61
C      11.78      17.57      15.18
C      12.04      18.75      14.51
C      11.49      18.95      13.23
C      10.67      18.00      12.64
C      15.95       5.09       8.08
C      11.43       7.65      10.23
C       4.27       4.56       6.80
C       3.71       5.00       7.98
C       4.56       5.28       9.11
C       5.95       5.18       9.02
C       6.52       4.71       7.79
C       5.67       4.38       6.68
C       6.23       3.86       5.48
C       7.59       3.67       5.37
C       8.44       4.01       6.45
C       7.92       4.51       7.63
C       6.81       5.46      10.25
C       9.37       9.00      10.53
C       9.94       7.75      10.33
C       9.07       6.61      10.23
C       7.68       6.72      10.29
C       7.11       8.02      10.48
C       7.97       9.17      10.63
C       7.41      10.45      10.87
C       6.04      10.62      10.94
C      18.92       9.51      10.78
C       5.71       8.24      10.56
C      15.32      15.57       3.17
C      13.76      19.01       3.59
C      14.38      17.91       3.00
C      14.81      16.84       3.79
C      14.68      16.99       5.18
C      14.04      18.11       5.70
C      16.30      14.77       4.04
C      17.66      15.47       4.18
C       5.92      16.38       1.04
C      18.92      16.53       2.22
C      18.44      15.40       2.89
C       4.95      14.15       2.31
C       5.65      14.07       1.12
C      13.79      20.58       8.03
C      14.85      21.10       8.76
C      15.29      22.41       8.51
C      14.58      23.15       7.56
C      13.58      22.54       6.82
C      16.55      22.95       9.11
C      16.80      22.65      10.60
C      18.30      22.78      10.93
C      12.21       3.75      11.12
C      11.70       2.50      11.44
C      18.84      24.14      10.61
C      19.62      24.39       9.47
C      13.26       2.93       9.21
N      20.06      20.22       8.31
N      12.97      24.25      13.04
N      20.41      17.72       6.60
N      13.01      12.60       3.62
N      14.24      11.11      19.46
N      14.46      10.63       1.89
N      13.89       8.61      17.74
N       7.57       3.49      14.76
N      21.11      12.16      18.17
N      14.44      17.59      21.19
N       7.02       9.98      16.06
N      14.44       6.05      11.63
N      13.19      21.27       7.03
N      12.99       3.97      10.04
N      13.54      19.09       4.92
N       6.15      15.16       0.49
O      18.28      19.27       5.92
O      17.04      21.04       6.57
O      15.32       8.25      20.37
O      16.86       9.83      20.52
O      15.88      22.42       4.83
O      15.18       6.34      22.03
O      15.50      23.75      14.93
O      15.16      21.62      14.24
O      11.84      24.53      15.51
O      12.17      25.63      17.46
O      17.71      24.84      14.57
O      23.34      24.62      14.38
O      15.99      10.18      17.06
O      17.28      11.91      17.71
O      19.00      17.37       9.24
O      17.45      18.94       9.38
O      18.44      13.30      15.96
O      19.12      15.46      10.89
O      11.93      10.14       3.76
O      12.26       8.02       3.03
O      15.60      10.91       4.37
O      15.26      12.01       6.32
O       9.71      11.23       3.43
O      17.83      11.05       3.23
O       9.12       9.63      17.73
O      10.42      10.61      19.31
O      12.13      21.61       4.05
O      10.58      22.06       5.56
O      11.57       9.17      21.01
O      12.25      22.85       1.85
O      11.91      19.32      20.33
O      12.24      18.18      18.41
O      15.58      20.07      20.97
O      15.24      22.20      21.66
O      23.42      19.22      21.47
O      17.81      18.98      21.33
O      11.41      18.74       6.57
O      10.17      19.73       8.17
O       8.45      12.49      15.19
O       9.99      12.95      16.70
O       9.01      18.30       9.88
O       8.31      13.74      12.99
O      15.52       5.73       9.17
O      15.18       4.61       7.23
O      11.86       6.45       9.82
O      12.19       8.58      10.52
O      17.73       5.58      10.32
O       9.63       5.36      10.14
