40

N      13.43      12.78      13.81
N      15.39      13.21      14.78
H      18.61      17.64      14.60
H      16.34      17.46      13.71
H      14.95      18.10      14.60
H      14.79      16.06      15.96
H      14.85      15.65      14.26
H      14.30      18.25      17.18
H      14.42      19.07      19.52
H      16.58      19.65      20.58
H      18.74      19.37      19.34
H      13.55      13.60      15.82
H      15.81      13.79      16.71
H      17.21      13.14      15.81
H      17.37      15.19      14.46
H      17.30      15.60      16.16
H      17.85      12.99      13.23
H      17.73      12.18      10.89
H      15.58      11.59       9.83
H      13.41      11.88      11.08
C      18.11      18.04      15.49
C      15.83      17.46      14.67
C      15.46      16.05      15.08
C      16.47      18.43      16.94
C      15.26      18.54      17.62
C      15.34      18.98      18.94
C      16.58      19.30      19.55
C      17.79      19.16      18.87
C      17.73      18.72      17.54
C      14.05      13.21      14.92
C      16.33      13.79      15.74
C      16.70      15.20      15.33
C      15.68      12.81      13.48
C      16.90      12.71      12.79
C      16.81      12.26      11.47
C      15.58      11.94      10.86
C      14.37      12.08      11.55
C      14.43      12.53      12.88
N      18.73      18.46      16.60
N      16.77      18.04      15.64
