27

C       6.55      -0.32      10.44
C       5.64       0.52       9.60
C       6.07       1.74       9.07
C       5.23       2.49       8.25
C       3.95       2.01       7.97
C       3.49       0.80       8.50
C       4.35       0.07       9.31
C       2.62       2.21       6.02
C       1.46       2.78       5.48
O       7.67       0.18      10.78
C       0.94       2.29       4.29
O       6.13      -1.48      10.75
C       3.26       1.15       5.37
O       3.12       2.79       7.17
C       2.72       0.66       4.18
C       1.56       1.23       3.62
H       7.08       2.09       9.30
H       5.55       3.44       7.82
H       2.48       0.45       8.30
H       4.00      -0.86       9.77
H       0.98       3.61       6.01
H       3.21      -0.16       3.66
H       4.17       0.71       5.78
C       1.02       0.73       2.32
O       0.06       1.39       1.81
O       1.58      -0.29       1.79
H       0.03       2.72       3.86
