27

H      -0.03       0.70      15.60
O      -6.13      -3.51      22.49
O      -7.67      -1.84      22.52
O      -3.12       0.76      18.91
O      -0.06      -0.63      13.55
O      -1.58      -2.32      13.53
C      -6.55      -2.34      22.18
C      -5.64      -1.51      21.33
C      -6.07      -0.28      20.80
C      -5.23       0.47      19.99
C      -3.95      -0.02      19.70
C      -3.49      -1.22      20.24
C      -4.35      -1.96      21.05
C      -2.62       0.19      17.75
C      -1.46       0.76      17.22
C      -0.94       0.27      16.03
C      -1.56      -0.80      15.36
H      -7.08       0.07      21.03
C      -2.72      -1.36      15.92
C      -1.02      -1.30      14.05
H      -3.21      -2.18      15.40
H      -4.17      -1.31      17.51
C      -3.26      -0.88      17.10
H      -5.55       1.42      19.55
H      -2.48      -1.58      20.03
H      -4.00      -2.88      21.50
H      -0.98       1.59      17.75
