18

Co       3.67      14.92      16.28
Co       1.24      13.77      14.32
H       5.34      15.06      14.31
C       3.56      15.37      13.42
C      -1.20      13.06      13.91
O       5.44      14.87      17.34
O       2.74      13.11      15.99
C       4.93      14.93      18.52
O       3.64      14.98      18.43
C       3.14      12.11      15.28
C       1.51      16.47      15.74
O       2.50      14.66      13.08
O       2.71      16.83      16.10
O       1.39      15.18      15.82
O       4.34      14.98      14.41
O       2.38      11.94      14.24
O      -0.45      13.73      13.11
O      -0.56      12.79      15.00
