24

Cu       4.69       8.24      15.84
Cu      -1.54       7.64      15.91
Cu       1.58       7.90      15.58
Cu       7.80       7.98      16.17
N       5.55       9.54      17.08
N       6.94       9.50      17.14
N      -0.68       6.33      14.67
N       0.71       6.38      14.61
N       2.44       9.15      14.27
N       3.82       9.20      14.32
N       8.67       6.73      17.48
N      10.05       6.68      17.44
Cl       3.13       7.01      17.14
Cl       9.36       8.87      14.62
Cl       0.02       9.20      16.81
Cl       6.25       6.68      14.95
C       4.87      10.38      17.87
C       7.61      10.31      17.95
C      -1.36       5.50      13.89
C       1.38       5.57      13.80
C       1.75       9.93      13.44
C       4.50      10.01      13.51
C       7.98       5.95      18.32
C      10.73       5.86      18.25
