24

Cs       2.23      12.35       3.35
O       0.26      10.87       5.16
O       0.75       9.60       2.45
Cd       5.46      15.11       3.40
Cd      -1.36      10.16       3.40
C       6.99      17.21       2.50
C       5.79      12.75       5.12
C      -2.98       8.11       4.35
C      -1.72      12.59       2.00
C       5.11      13.80       0.87
C       3.29      16.18       5.01
C      -0.65      11.42       5.87
C       0.32       8.99       1.40
O       7.53      16.28       3.20
O       5.74      17.20       2.26
O       4.54      12.93       5.02
O       6.63      13.53       4.52
O      -3.52       9.15       3.84
O      -1.71       7.99       4.39
O      -0.54      12.40       2.44
O      -2.66      11.76       2.25
O       4.24      13.99       1.80
O       2.81      15.51       4.05
O       4.56      16.26       5.20
