18

C      12.02       8.34       5.90
C      11.09       9.29       6.57
O      14.29       4.13       5.89
H      12.09       6.98       7.58
H      14.25       5.74       4.06
O      13.15       8.91       1.93
O      14.29       6.93       1.93
O      13.15       4.79       7.76
C      13.23       6.24       5.90
C      13.59       4.96       6.57
O      10.72      10.31       5.89
C      13.63       6.47       4.58
C      12.42       8.57       4.58
H      12.09       9.47       4.06
C      13.23       7.64       3.92
C      13.59       7.85       2.49
C      12.42       7.17       6.56
O      10.72       9.00       7.76
