18

C      17.49      10.10       0.44
C      16.20       9.35       0.36
C      17.48      11.50       0.44
C      19.91      10.10       0.44
C      21.20       9.35       0.36
C      18.70       9.40       0.44
H      16.54      12.04       0.43
C      19.91      11.50       0.44
C      18.70      12.19       0.44
C      18.70      13.69       0.36
H      18.70       8.31       0.43
O      15.13      10.05       0.31
O      19.84      14.26       0.31
O      16.27       8.08       0.31
H      20.85      12.04       0.43
O      22.27      10.05       0.31
O      17.56      14.26       0.31
O      21.13       8.08       0.31
