18

C      24.16      13.96      11.35
C      23.80      13.75      12.78
C      24.16      15.35       9.37
C      23.80      16.64       8.70
C      24.97      13.02      10.69
C      23.76      15.12      10.69
C      24.97      14.42       8.71
C      25.37      13.26       9.37
H      25.30      12.12      11.21
H      23.14      15.85      11.21
C      26.30      12.30       8.70
O      24.24      12.68      13.34
O      23.10      14.66      13.34
O      24.25      16.80       7.51
H      25.30      14.61       7.69
O      26.67      12.60       7.51
O      26.67      11.28       9.37
O      23.10      17.46       9.38
