624

C       2.87       4.99       4.23
C       3.49       4.31       5.30
C       3.79       2.93       5.23
C       3.47       2.21       4.03
C       2.68       2.85       3.04
C       2.41       4.22       3.13
C       2.59       6.38       4.24
C       1.90       7.00       5.31
C       1.47       8.35       5.23
C       1.72       9.08       4.02
C       2.58       8.52       3.04
C       2.98       7.17       3.15
C      13.58      26.54       4.30
C      14.14      27.32       3.27
C      14.30      28.72       3.39
C      13.88      29.35       4.61
C      13.14      28.59       5.57
C      13.04      27.19       5.43
C      13.70      25.13       4.25
C      13.22      24.39       3.15
C      13.52      23.02       3.01
C      14.42      22.40       3.92
C      14.80      23.08       5.12
C      14.42      24.45       5.25
C      13.78       6.41      24.62
C      13.20       7.08      25.72
C      12.91       8.47      25.66
C      13.19       9.19      24.46
C      13.94       8.55      23.43
C      14.19       7.16      23.50
C      13.88       5.00      24.61
C      14.54       4.29      25.62
C      14.58       2.87      25.62
C      13.89       2.14      24.60
C      13.20       2.87      23.58
C      13.22       4.28      23.59
C       2.64      25.22      24.65
C       2.00      24.52      23.61
C       1.99      23.10      23.58
C       2.69      22.36      24.58
C       3.35      23.08      25.62
C       3.31      24.49      25.65
C       2.71      26.63      24.66
C       3.28      27.34      23.58
C       3.55      28.72      23.66
C       3.27      29.41      24.88
C       2.52      28.74      25.90
C       2.29      27.35      25.79
C       8.41      36.06      13.82
C       7.88      37.12      13.05
C       7.71      37.02      11.65
C       8.08      35.80      11.00
C       8.76      34.79      11.75
C       8.89      34.92      13.15
C       8.34      36.11      15.24
C       8.78      37.24      15.96
C       8.55      37.36      17.34
C       7.81      36.35      18.03
C       7.50      35.13      17.35
C       7.76      35.04      15.96
C      19.16      36.18      35.48
C      18.56      35.13      36.21
C      18.31      35.24      37.60
C      18.67      36.45      38.27
C      19.42      37.44      37.56
C      19.63      37.31      36.18
C      19.32      36.10      34.07
C      19.97      35.01      33.46
C      20.14      34.95      32.06
C      19.63      35.99      31.23
C      18.96      37.09      31.84
C      18.83      37.14      33.25
C      19.15      15.81      15.17
C      19.74      16.85      15.93
C      19.66      16.87      17.34
C      18.97      15.84      18.03
C      18.37      14.79      17.27
C      18.47      14.79      15.86
C      19.22      15.81      13.75
C      18.89      16.95      13.01
C      18.89      16.96      11.59
C      19.26      15.76      10.89
C      19.62      14.59      11.64
C      19.58      14.64      13.05
C       8.13      15.90      34.00
C       8.67      14.79      33.33
C       8.98      14.83      31.95
C       8.74      16.04      31.23
C       8.04      17.10      31.87
C       7.77      17.03      33.25
C       7.96      15.89      35.41
C       7.26      14.85      36.07
C       7.16      14.83      37.47
C       7.80      15.83      38.27
C       8.51      16.87      37.60
C       8.57      16.89      36.19
C       1.93       2.10       2.09
C       2.12       2.25       0.70
C       1.36       1.51      40.24
C       0.36       0.62       0.25
C       0.12       0.49       1.65
C       0.91       1.24       2.55
C      21.66      40.24      39.81
C       0.19      38.95      39.54
C      21.43      38.05      38.76
C      20.18      38.42      38.24
C      19.69      39.73      38.45
C      20.43       0.18      39.24
C      12.40      29.21       6.61
C      12.75      29.06       7.96
C      12.11      29.83       8.97
C      11.08      30.73       8.60
C      10.68      30.85       7.24
C      11.34      30.08       6.26
C      10.57      31.66       9.55
C      11.24      32.91       9.69
C      10.64      33.92      10.48
C       9.41      33.70      11.13
C       8.81      32.43      11.06
C       9.38      31.40      10.26
C      14.58       9.29      22.40
C      14.30       9.08      21.04
C      14.90       9.88      20.04
C      15.83      10.89      20.42
C      16.15      11.08      21.79
C      15.53      10.27      22.76
C      16.37      11.76      19.45
C      15.70      12.98      19.16
C      16.35      13.96      18.37
C      17.65      13.73      17.87
C      18.27      12.48      18.08
C      17.64      11.49      18.87
C       4.14      22.44      26.62
C       3.69      22.38      27.95
C       4.41      21.65      28.92
C       5.62      21.00      28.55
C       6.11      21.11      27.22
C       5.37      21.84      26.27
C       6.20      20.06      29.45
C       5.72      18.72      29.43
C       6.34      17.77      30.26
C       7.40      18.12      31.12
C       7.82      19.47      31.18
C       7.23      20.45      30.34
C       9.43      13.63      31.31
C       8.85      13.21      30.09
C       9.41      12.18      29.32
C      10.49      11.43      29.85
C      10.99      11.72      31.15
C      10.46      12.83      31.85
C      11.22      10.57      28.98
C      10.76       9.26      28.68
C      11.34       8.56      27.60
C      12.39       9.11      26.84
C      12.94      10.34      27.27
C      12.33      11.10      28.28
C       7.00      33.97      18.03
C       7.58      33.56      19.25
C       7.01      32.54      20.04
C       5.92      31.79      19.52
C       5.41      32.09      18.22
C       5.95      33.19      17.51
C       5.20      30.92      20.38
C       5.68      29.61      20.65
C       5.11      28.88      21.72
C       4.06      29.40      22.50
C       3.50      30.64      22.11
C       4.09      31.43      21.10
C      18.50      18.18      10.94
C      19.27      18.74       9.90
C      18.74      19.72       9.04
C      17.48      20.31       9.35
C      16.79      19.91      10.52
C      17.29      18.82      11.28
C      16.78      21.06       8.36
C      17.08      22.42       8.10
C      16.44      23.07       7.01
C      15.45      22.43       6.23
C      15.07      21.13       6.61
C      15.76      20.41       7.61
C      12.43       2.24      22.58
C      12.88       2.21      21.24
C      12.17       1.49      20.25
C      10.97       0.81      20.62
C      10.48       0.89      21.95
C      11.21       1.62      22.91
C      10.41      40.34      19.71
C      10.91      39.01      19.71
C      10.29      38.05      18.88
C       9.21      38.39      18.04
C       8.77      39.73      18.00
C       9.36       0.25      18.82
C       1.88      29.45      26.95
C       2.16      29.20      28.31
C       1.56      29.97      29.33
C       0.64      30.99      28.98
C       0.31      31.22      27.61
C       0.93      30.44      26.62
C       0.12      31.86      29.97
C       0.82      33.06      30.28
C       0.18      34.05      31.06
C      20.87      33.86      31.54
C      20.22      32.62      31.32
C      20.84      31.61      30.54
C       3.21       9.32       2.04
C       3.03       9.08       0.67
C       3.66       9.90      40.16
C       4.51      10.96       0.12
C       4.73      11.18       1.52
C       4.07      10.36       2.45
C       5.10      11.83      39.64
C       4.43      13.03      39.28
C       5.10      13.99      38.49
C       6.43      13.77      38.06
C       7.05      12.54      38.35
C       6.40      11.56      39.13
C      19.98      13.33      11.04
C      19.19      12.74      10.03
C      19.69      11.71       9.22
C      20.94      11.11       9.54
C      21.65      11.55      10.70
C      21.17      12.67      11.41
C      21.64      10.34       8.56
C      21.33       8.98       8.32
C      21.94       8.32       7.22
C       0.89       8.97       6.39
C       1.29      10.27       6.76
C       0.64      10.99       7.78
C      17.81      34.09      38.30
C      18.39      33.69      39.52
C      17.81      32.68      40.32
C      16.72      31.93      39.81
C      16.22      32.21      38.51
C      16.75      33.30      37.79
C      16.02      31.04       0.21
C      16.52      29.74       0.48
C      15.95      28.98       1.53
C      14.85      29.46       2.28
C      14.27      30.69       1.89
C      14.88      31.51       0.92
C      12.78      22.27       2.07
C      12.95      22.42       0.68
C      12.24      21.61      40.23
C      11.33      20.64       0.26
C      11.12      20.50       1.66
C      11.85      21.32       2.54
C      10.67      19.75      39.83
C      11.27      18.50      39.52
C      10.54      17.57      38.75
C       9.25      17.86      38.29
C       8.69      19.13      38.54
C       9.39      20.09      39.31
C      15.34       2.23      26.63
C      14.88       2.19      27.96
C      15.53       1.39      28.93
C      16.66       0.63      28.56
C      17.17       0.71      27.23
C      16.51       1.52      26.29
C      17.19      40.13      29.46
C      16.62      38.83      29.49
C      17.20      37.84      30.31
C      18.34      38.12      31.10
C      18.85      39.44      31.11
C      18.29      40.45      30.30
C       7.21      38.17      10.94
C       7.82      38.58       9.73
C       7.26      39.59       8.92
C       6.14      40.34       9.41
C       5.61      40.04      10.69
C       6.13      38.94      11.42
C       5.44       0.74       8.52
C       5.91       2.06       8.26
C       5.35       2.79       7.18
C       4.29       2.26       6.40
C       3.74       1.02       6.80
C       4.34       0.23       7.80
C       1.25      22.47      22.55
C       1.73      22.47      21.22
C       1.10      21.68      20.22
C      21.97      20.90      20.57
C      21.45      20.93      21.89
C       0.09      21.73      22.86
C      21.47      19.94      19.64
C       0.06      18.65      19.59
C      21.48      17.66      18.77
C      20.33      17.93      18.01
C      19.80      19.24      18.00
C      20.36      20.25      18.81
H       3.73       4.84       6.14
H       3.58       6.76       2.42
H       0.34      10.56       4.30
H       1.18      10.70       2.89
H       3.81       0.51       2.94
H       4.65       0.57       4.35
H       1.83       4.67       2.42
H       1.69       6.44       6.14
H      14.47      26.85       2.43
H      14.71      24.97       6.09
H      14.79      20.77       2.73
H      15.74      20.83       4.07
H      14.05      31.02       5.79
H      14.92      31.09       4.40
H      12.57      26.63       6.15
H      12.61      24.85       2.47
H      12.97       6.54      26.56
H      12.69       4.79      22.87
H      14.27       0.25      25.32
H      13.44       0.26      23.90
H      12.78      10.89      23.39
H      12.02      10.83      24.84
H      14.70       6.70      22.74
H      15.04       4.81      26.35
H       1.50      25.04      22.88
H       1.79      26.86      26.54
H       4.42      31.06      24.55
H       3.66      31.08      26.00
H       3.16      20.47      25.24
H       2.34      20.48      23.82
H       3.82      24.99      26.38
H       3.52      26.82      22.73
H       7.58      37.97      13.53
H       7.50      34.19      15.46
H       7.49      37.45      19.73
H       6.71      36.02      19.72
H       7.90      34.68       9.29
H       7.09      36.10       9.24
H       9.34      34.18      13.69
H       9.28      37.99      15.46
H      18.30      34.28      35.71
H      18.32      37.92      33.68
H      20.21      35.19      29.42
H      19.50      36.67      29.29
H      18.44      37.57      39.98
H      17.59      36.16      39.98
H      20.17      38.02      35.68
H      20.36      34.27      34.05
H      20.26      17.59      15.44
H      19.81      13.80      13.59
H      18.82      16.40       8.99
H      19.72      15.04       9.02
H      18.42      15.15      19.89
H      19.21      16.59      19.93
H      18.01      14.04      15.33
H      18.63      17.81      13.51
H       8.87      13.93      33.87
H       9.12      17.63      35.72
H       7.27      15.09      40.11
H       8.15      16.48      40.18
H       9.15      17.08      29.51
H       9.87      15.61      29.57
H       7.27      17.81      33.71
H       6.81      14.12      35.51
H       0.74       1.15       3.55
H      21.80      37.11      38.59
H      18.78      40.00      38.07
H       2.85       2.89       0.36
H      11.08      30.19       5.28
H      11.08      34.84      10.53
H       7.91      32.26      11.53
H      13.53      28.45       8.22
H      15.75      10.42      23.75
H      15.90      14.86      18.22
H      19.21      12.31      17.72
H      13.61       8.38      20.76
H       5.70      21.89      25.30
H       6.01      16.80      30.23
H       8.59      19.73      31.80
H       2.80      22.81      28.21
H      10.88      13.09      32.75
H      10.94       7.65      27.34
H      13.74      10.74      26.76
H       8.07      13.75      29.70
H       5.52      33.44      16.61
H       5.52      27.97      21.96
H       2.70      31.02      22.62
H       8.38      34.08      19.63
H      16.72      18.46      12.05
H      16.73      24.03       6.80
H      14.31      20.65       6.11
H      20.17      18.31       9.66
H      10.87       1.65      23.88
H      10.63      37.08      18.91
H       7.99      39.98      17.39
H      13.76       2.66      20.99
H       0.71      30.62      25.64
H       0.65      34.94      31.21
H      19.27      32.48      31.66
H       2.85      28.49      28.56
H       4.23      10.52       3.45
H       4.65      14.88      38.29
H       8.02      12.38      38.04
H       2.41       8.33       0.36
H      21.75      13.05      12.16
H      21.66       7.36       7.01
H       2.02      10.75       6.23
H      18.30      13.18       9.78
H      16.33      33.54      36.89
H      16.38      28.08       1.77
H      13.45      31.04       2.37
H      19.19      34.21      39.90
H      11.72      21.21       3.55
H      10.96      16.65      38.56
H       7.75      19.35      38.19
H      13.63      23.11       0.32
H      16.84       1.54      25.32
H      16.80      36.90      30.31
H      19.66      39.66      31.70
H      14.02       2.69      28.21
H       5.68      38.69      12.30
H       5.75       3.70       6.95
H       2.94       0.63       6.29
H       8.63      38.07       9.37
H      21.74      21.72      23.82
H      21.88      16.71      18.78
H      18.97      19.44      17.45
H       2.58      22.99      20.99
N       3.95       0.95       3.80
N       1.09      10.27       3.76
N      14.24      30.63       4.92
N      14.97      21.18       3.59
N      12.68      10.44      24.25
N      13.87       0.77      24.61
N       2.73      20.99      24.55
N       3.75      30.67      25.13
N       7.73      35.54       9.70
N       7.37      36.59      19.31
N      18.27      36.71      39.55
N      19.78      35.94      29.87
N      18.86      15.86      19.40
N      19.27      15.73       9.52
N       9.23      16.22      29.96
N       7.73      15.80      39.63
N      19.94       1.49      39.48
N       1.46      38.58      40.06
N       1.58       1.62      38.84
N      21.14      40.13       2.26
N       8.77      30.13      10.16
N      12.46      33.15       9.02
N      12.50      29.74      10.33
N       9.67      31.71       6.73
N      18.26      10.24      19.10
N      14.41      13.22      19.70
N      14.59       9.70      18.67
N      17.05      12.04      22.31
N       7.65      21.80      30.39
N       4.65      18.36      28.58
N       3.93      21.53      30.25
N       7.29      20.50      26.72
N      12.78      12.42      28.55
N       9.72       8.69      29.46
N       8.85      12.05      28.02
N      11.99      10.98      31.83
N       3.63      32.75      20.87
N       6.72      29.06      19.85
N       7.58      32.41      21.33
N       4.40      31.36      17.55
N      15.46      19.04       7.84
N      17.98      23.11       8.95
N      19.49      19.95       7.87
N      15.57      20.54      10.88
N       8.92       1.60      18.79
N      11.99      38.66      20.55
N      12.65       1.40      18.93
N       9.30       0.26      22.43
N      20.19      30.38      30.29
N       2.11      33.27      29.74
N       1.88      29.76      30.70
N      21.42      32.21      27.12
N       7.03      10.33      39.44
N       3.11      13.26      39.74
N       3.46       9.69      38.78
N       5.56      12.18       2.07
N       0.94      12.36       8.00
N      20.46       8.29       9.20
N      18.92      11.45       8.06
N       0.86      10.91      11.06
N      14.40      32.83       0.69
N      17.59      29.22      40.16
N      18.37      32.57       1.16
N      15.22      31.46      37.84
N       8.84      21.36      39.57
N      12.57      18.21      39.99
N      12.44      21.73      38.83
N      10.23      19.59       2.29
N      18.79       1.31      30.32
N      15.49      38.54      28.69
N      15.03       1.31      30.26
N      18.28      40.45      26.72
N       3.88      39.36       8.03
N       6.94       2.61       9.07
N       7.85      39.72       7.64
N       4.59       0.30      11.34
N      19.84      21.57      18.81
N       1.20      18.37      20.39
N       1.61      21.64      18.90
N      20.35      20.17      22.37
O      19.85       2.14      38.41
O      21.33      38.91       2.04
O       2.75       1.28      38.53
O       1.39      37.57       0.33
O      18.82       1.48      40.04
O      19.98      40.44       1.91
O       1.38       2.79      38.44
O       2.28      38.34      39.13
O       8.74      29.55      11.27
O       9.94      32.93       6.90
O      13.70      30.06      10.48
O      12.38      34.11       8.22
O       7.59      30.20       9.72
O       8.54      31.47       7.21
O      12.34      28.57      10.77
O      13.39      33.38       9.84
O      18.41       9.60      18.03
O      16.70      13.22      22.08
O      13.37       9.90      18.44
O      14.39      14.24      20.44
O      19.39      10.36      19.64
O      18.23      11.87      21.90
O      14.89       8.55      18.27
O      13.56      13.37      18.79
O       7.43      22.30      31.52
O       7.25      19.25      26.76
O       2.80      20.98      30.29
O       4.98      17.46      27.76
O       8.87      21.92      30.12
O       8.31      20.90      27.33
O       3.85      22.66      30.81
O       3.66      17.95      29.24
O      12.63      13.17      27.55
O      11.65       9.78      31.98
O       9.68      12.27      27.10
O       8.74       8.32      28.77
O      14.00      12.45      28.88
O      13.11      11.03      31.28
O       8.29      10.95      27.83
O      10.14       7.68      30.09
O       3.79      33.48      21.88
O       4.72      30.15      17.40
O       6.75      32.64      22.25
O       7.71      28.69      20.53
O       2.42      32.78      20.55
O       3.28      31.42      18.11
O       8.12      31.30      21.52
O       6.30      28.07      19.21
O      15.73      18.34       6.84
O      14.61      19.73      10.94
O      18.86      19.66       6.82
O      18.91      23.67       8.32
O      14.25      18.86       8.14
O      15.67      21.12      11.99
O      19.94      21.11       7.79
O      17.37      24.00       9.60
O       9.12       2.11      17.66
O       9.36      39.47      22.37
O      13.79       0.86      18.88
O      11.67      37.76      21.37
O       7.70       1.70      19.07
O       8.28       0.66      21.83
O      12.72       2.53      18.39
O      12.98      38.26      19.89
O      20.02      29.74      31.36
O      21.79      33.38      27.38
O       3.10      29.95      30.92
O       2.16      34.29      29.00
O      19.07      30.53      29.74
O      20.24      32.05      27.52
O       1.58      28.60      31.06
O       2.96      33.41      30.66
O       7.26       9.66      38.40
O       5.19      13.34       1.80
O       2.25       9.82      38.46
O       3.03      14.30      40.44
O       8.12      10.50      40.05
O       6.77      12.04       1.74
O       3.84       8.54      38.43
O       2.31      13.36      38.78
O       0.64      13.06       6.99
O       1.84      11.70      11.08
O      19.55      11.69       6.99
O      19.51       7.73       8.59
O       2.15      12.54       8.26
O       0.76      10.39      12.20
O      18.46      10.29       8.03
O      21.08       7.40       9.83
O      14.52      33.54       1.72
O      15.56      30.25      37.71
O      17.54      32.81       2.07
O      18.56      28.85       0.40
O      13.19      32.84       0.34
O      14.10      31.51      38.39
O      18.93      31.47       1.37
O      17.20      28.22      39.50
O       8.67      22.01      38.51
O      10.53      18.39       2.07
O      13.63      21.49      38.51
O      12.59      17.19       0.26
O       7.73      21.28      40.17
O       9.04      19.79       1.96
O      12.13      22.88      38.42
O      13.37      18.04      39.04
O      18.66       1.83      31.45
O      18.10      39.20      26.76
O      13.86       0.86      30.28
O      15.72      37.61      27.87
O      20.01       1.35      30.01
O      19.34       0.27      27.32
O      15.05       2.43      30.82
O      14.50      38.21      29.39
O       4.05      38.64       7.02
O       4.90       1.51      11.50
O       7.05      39.48       6.70
O       7.93       2.99       8.39
O       2.67      39.33       8.34
O       3.48       0.24      10.76
O       8.39       0.37       7.45
O       6.51       3.60       9.71
O      19.95      22.10      17.67
O      20.55      18.94      22.31
O       2.79      21.21      18.88
O       0.98      17.44      21.20
O      18.62      21.59      19.13
O      19.28      20.46      21.78
O       1.58      22.77      18.36
O       2.19      18.05      19.67
