22

C       4.40       1.09       2.76
C       2.44      -3.01       2.74
C       6.33      -2.38       2.61
C       4.38       1.11       6.51
C       2.42      -2.99       6.57
C       6.33      -2.37       6.74
Cr       6.24      -0.57       4.66
Cr       2.84      -0.60       4.64
Cr       4.64      -3.57       4.67
O       7.21      -1.63       3.17
O       5.45       0.55       3.26
O       3.25       0.75       3.14
O       2.31      -1.84       3.26
O       3.28      -3.87       3.17
O       5.98      -3.45       3.29
O       7.20      -1.62       6.16
O       5.43       0.56       6.03
O       3.23       0.76       6.13
O       2.29      -1.83       6.03
O       3.26      -3.86       6.16
O       5.97      -3.44       6.06
O       4.57      -1.58       4.65
