29

S       7.68       6.17      11.76
H       8.70       8.14       9.93
O      13.80       4.05      13.62
O       6.88       5.56       5.13
C       9.23       5.34      12.10
C       8.27       7.34       9.34
H       8.77       8.22       7.44
H       6.61       4.49       7.27
O       8.41       7.21       5.08
O      12.99       2.11      12.74
H      12.40       6.01      13.13
H       6.62       4.36       9.77
C       8.29       7.38       7.95
H       8.45       3.38      11.62
H      10.59       2.23      12.16
C      11.63       4.06      12.67
H      10.23       7.18      12.62
C       7.07       5.28       7.86
O       7.79       7.53      12.27
O       6.59       5.29      12.19
C      11.53       5.45      12.80
C       7.66       6.37       5.71
C       7.07       5.21       9.25
C       9.32       3.95      11.95
C       7.67       6.25       9.98
C      12.90       3.37      13.03
C      10.52       3.31      12.24
C       7.69       6.36       7.20
C      10.33       6.10      12.51
