29

C       7.81       2.31      17.89
C       7.35       2.71      20.23
C       7.01       2.19      21.57
C       7.84       3.70      17.68
S       8.05       4.34      16.03
H       4.19       7.16      15.03
H       6.55       6.75      15.74
H       3.57       2.93      14.55
H       7.68       5.67      18.54
O       1.56       4.34      14.21
H       7.25       4.77      20.86
O       6.89       3.00      22.56
H       7.53       0.75      19.36
H       5.94       2.51      15.23
O       2.07       6.55      13.95
O       6.80       0.93      21.76
H       7.99       1.63      17.06
O       8.71       5.63      16.11
O       8.60       3.26      15.21
C       4.58       6.15      15.07
C       5.89       5.92      15.48
C       4.23       3.75      14.80
C       7.65       4.60      18.74
C       7.41       4.10      20.02
C       3.75       5.07      14.72
C       7.56       1.82      19.17
C       5.55       3.52      15.19
C       6.36       4.61      15.52
C       2.35       5.32      14.27
