32

H       7.48       3.12       1.28
H       7.64       1.60      -0.68
H       7.25       6.09      -2.87
H       8.70       2.46       2.87
H       8.48       5.43      -1.28
H       6.41       6.02       2.01
H       9.55       2.53      -2.01
H       8.32       6.95       0.68
C       8.20       3.46      -0.62
C       7.74       4.80      -0.77
C       8.22       3.74       0.77
C       6.49       5.01      -1.44
C       9.47       3.54       1.44
C       5.29       4.61      -0.76
C      10.66       3.94       0.76
C       5.31       4.74       0.62
C      10.65       3.81      -0.62
C      11.79       4.18      -1.39
C      11.86       4.37       1.39
C      11.98       4.36       2.83
C      11.68       4.19      -2.83
C       6.48       5.33       1.18
C       9.48       3.22      -1.18
C       7.76       5.09       0.62
O       7.29       2.48      -1.00
O       6.38       5.98      -2.42
O       9.58       2.57       2.42
O      13.16       4.45       3.34
O      10.50       4.10      -3.34
O      10.93       4.22       3.57
O      12.72       4.33      -3.57
O       8.66       6.07       1.00
