22

C      12.08       7.52       2.71
O      14.97       4.85       3.18
O       9.84       4.65       6.08
O      10.81       2.55       6.20
O      13.64       2.98       6.12
O      12.22       4.91       4.68
O      13.18       7.09       3.27
O      10.88       7.31       3.14
O       9.84       4.63       3.25
C      10.43       3.65       2.57
O      10.81       2.54       3.16
O      13.64       2.97       3.29
O      14.97       4.87       6.23
O      13.18       7.11       6.09
O      10.88       7.32       6.18
C      14.59       3.68       2.76
C      12.07       7.56       6.62
C      10.00       3.47       6.62
C      14.56       3.73       6.67
Cr      13.98       5.95       4.69
Cr      10.43       5.92       4.66
Cr      12.24       2.85       4.69
