22

C       4.45       3.09      16.01
O       5.31      -0.75      15.53
O       8.04       3.60      12.63
O       9.37       1.72      12.50
O       7.59      -0.53      12.59
O       6.63       1.66      14.03
O       4.27       1.92      15.44
O       5.23       4.02      15.57
O       8.06       3.59      15.46
C       8.56       2.55      16.13
O       9.39       1.70      15.55
O       7.61      -0.54      15.42
O       5.30      -0.74      12.48
O       4.25       1.93      12.61
O       5.21       4.03      12.52
C       6.52      -1.01      15.96
C       4.41       3.11      12.09
C       8.99       2.87      12.09
C       6.48      -0.96      12.04
Cr       4.85       0.65      14.02
Cr       6.65       3.72      14.05
Cr       8.40       0.62      14.02
