28

C       4.64       3.02      10.40
C       3.93       2.59      11.66
C       3.53       3.52      12.60
C       2.99       3.11      13.81
C       2.82       1.76      14.11
C       3.20       0.83      13.15
C       3.73       1.26      11.94
C       2.29       1.38      15.45
C       1.26       2.11      16.02
C       0.81       1.88      17.31
H       0.85       2.77      15.51
C       2.46       0.12      17.50
C       2.85       0.34      16.19
H       3.49      -0.21      15.81
C       1.46       0.91      18.08
C      -0.37       2.65      17.85
H       1.23       0.80      18.97
C       3.07      -0.96      18.35
O       5.09       2.16       9.63
O       4.81       4.26      10.18
O       3.55      -1.99      17.81
O       3.08      -0.81      19.61
O      -0.75       2.37      19.03
O      -0.90       3.48      17.10
H       3.62       4.43      12.41
H       2.73       3.75      14.44
H       3.11      -0.08      13.32
H       3.95       0.63      11.29
