112

Zn       6.54       5.25      13.11
Zn       3.53       4.95      13.41
H       5.20       7.26       9.40
H       8.09       2.90       3.39
H       7.76       9.92      25.00
H       0.39       2.61       0.99
H       4.59       8.31       0.23
H       9.23       3.33      25.58
H       1.86       3.67      15.36
H       8.70       5.16      15.57
H       8.00       3.64      14.80
H       8.21       6.54      11.17
H       2.08       6.56      11.72
H       5.01       3.53      17.92
H       1.38       5.05      10.96
H       7.09       9.45      18.03
H       6.90       2.42      19.46
H       5.65       2.54      21.68
H       4.60       9.58      22.33
H       4.60       7.52      20.97
H       6.25       1.89       7.56
H       7.17       9.05       5.91
H       6.10       9.09       3.69
H       3.93       1.86       3.17
H       5.57       7.47       7.00
H       3.42       3.64       4.80
H       2.94       8.80      11.86
H       2.39       1.25      13.01
H       3.39       1.39      11.49
H       7.15       1.40      14.65
H       6.71       8.81      15.03
H       7.70       8.96      13.50
H       5.82       4.13      20.21
H       3.97       8.18       2.56
H       8.84       3.06      23.21
H       5.52       7.64      16.87
H       4.37       3.06       8.95
H       7.99       9.70      22.58
C       4.82       7.72      13.28
C       8.12       7.54      22.63
C       4.74       5.15       9.32
C       5.40       5.52      17.18
C       8.01       7.80      25.41
C       6.98       4.35       0.51
C       8.75       5.46      25.64
C       5.86       6.54       0.26
C       8.37       6.56      24.83
C       6.33       5.48       1.08
C       7.91       8.93      24.58
C       5.26       2.48      13.25
C       7.62       3.44       1.37
C       8.05       8.81      23.20
C       7.58       3.61       2.75
C       4.85       5.00      10.76
C       5.23       5.22      15.77
C       5.04       7.53       0.83
C       8.97       4.21      25.01
C       4.72       9.15      13.09
C       5.36       1.05      13.44
C       4.91       6.40       4.37
C       6.13       5.54       2.47
C       8.00       5.02      21.50
C       6.60       4.74       4.69
C       8.00       7.33      21.25
C       4.80       4.13       7.12
C       6.21       7.07      18.83
C       4.58       4.03       8.50
C       5.72       6.82      17.55
C       5.05       6.39       8.77
C       5.40       4.52      18.14
C       5.27       6.51       7.40
C       8.28       6.41      23.44
C       5.96       4.80      19.40
C       5.19       5.39       6.57
C       6.65       5.99      19.64
C       8.88       4.29      14.90
C       1.20       5.91      11.63
C       5.88       8.35      19.42
C       6.50       9.49      18.94
C       6.21       1.66      19.77
C       5.52       1.71      21.00
C       5.13       9.55      21.39
C       5.24       6.48       3.01
C       5.11       8.40      20.61
C       4.81       2.90       6.30
C       5.71       1.87       6.62
C       6.01       0.88       5.68
C       5.39       0.90       4.43
C       4.42       1.86       4.14
C       4.12       2.86       5.07
C       3.09       0.72      12.32
C       7.00       9.48      14.19
C       8.36       5.14      22.85
C       4.67       7.45       2.18
C       8.75       4.05      23.64
C       6.79       4.63       3.31
N       5.58       5.52       5.19
N       7.55       6.12      20.80
N       1.53       4.74      13.61
N       8.55       5.46      12.91
O       6.00       7.22      13.18
O       8.14       3.83      20.90
O       8.43       8.28      20.40
O       7.40       4.05       5.53
O       4.08       2.98      13.35
O       3.74       6.99      13.40
O       6.34       3.21      13.13
O       6.03       5.12      11.26
O       4.04       5.08      15.26
O       3.78       4.89      11.48
O       6.30       5.31      15.04
O       3.93       7.18       4.88
