18

S       3.80      15.66       9.79
N      -1.40      19.91       5.97
H       0.56      19.87       8.97
H       2.30      18.15       9.95
N       6.41      12.91      10.45
H       4.45      12.95       7.44
H       2.71      14.67       6.46
C       0.50      18.65       7.17
C       0.96      19.01       8.45
C       1.84      18.07       8.98
C       2.09      16.98       8.11
C      -0.52      19.29       6.46
C       4.51      14.17       9.25
C       4.05      13.81       7.97
C       3.17      14.75       7.44
C       2.93      15.84       8.31
C       5.53      13.53       9.95
S       1.21      17.16       6.62
