18

S       3.80       8.95      14.83
N      -1.40       4.70      18.65
H       0.56       4.75      15.65
H       2.30       6.47      14.67
N       6.41      11.71      14.18
H       4.45      11.66      17.18
H       2.71       9.95      18.16
C       0.50       5.96      17.45
C       0.96       5.61      16.17
C       1.84       6.55      15.65
C       2.09       7.64      16.51
C      -0.51       5.32      18.16
C       4.51      10.45      15.38
C       4.06      10.80      16.66
C       3.17       9.86      17.18
C       2.92       8.77      16.32
C       5.52      11.09      14.67
S       1.21       7.46      18.00
