29

C       2.95      11.61      14.13
C       1.52      11.83      14.52
C       0.98      13.10      14.67
C      -0.34      13.28      15.01
C      -1.12      12.16      15.23
C      -0.61      10.89      15.07
C       0.70      10.73      14.71
S      -2.80      12.37      15.72
C      -2.65      13.01      17.35
C      -2.82      14.38      17.55
C      -2.14      14.06      19.82
C      -2.03      12.69      19.62
C      -2.29      12.16      18.38
C      -1.67      14.69      21.07
H       1.52      13.85      14.54
H      -0.70      14.13      15.10
H      -1.15      10.14      15.21
H       1.05       9.87      14.58
C      -2.58      14.89      18.80
H      -2.70      15.80      18.96
H      -1.78      12.14      20.32
H      -2.22      11.24      18.24
H      -3.10      14.93      16.86
O      -1.12      13.99      21.96
O       3.69      12.62      14.06
O       3.31      10.43      13.94
O      -1.72      15.94      21.18
O      -3.39      13.40      14.91
O      -3.41      11.09      15.79
