29

C       2.94      10.59       1.24
C       1.63      10.73       1.61
C       0.76       9.68       1.42
C       1.21       8.51       0.81
C       2.51       8.38       0.43
C      -0.64       9.77       1.93
S       5.08       9.20       0.29
O       7.62       5.88       5.45
O      -1.13      10.87       2.25
H       7.19       9.61       4.50
H       6.23      10.43       2.54
H       5.45       6.67       1.40
O       7.94       7.97       6.17
H       3.54      11.29       1.37
H       1.33      11.52       1.99
H       0.61       7.81       0.66
O      -1.29       8.70       2.03
H       2.81       7.60       0.02
O       5.63      10.48       0.01
O       5.20       8.15      -0.67
H       6.38       5.87       3.35
C       7.53       7.13       5.35
C       6.87       7.67       4.10
C       6.83       9.02       3.87
C       6.27       9.52       2.70
C       5.76       8.61       1.79
C       5.80       7.26       2.03
C       6.36       6.78       3.18
C       3.38       9.42       0.66
