29

C      13.34      15.27       6.96
C      10.36      17.90       9.48
C       9.93      19.08       8.91
C       8.61      19.21       8.53
C       7.75      18.16       8.72
C       8.19      17.00       9.33
C       9.49      16.86       9.71
C       6.35      18.25       8.22
H      14.17      18.09       5.65
H      13.22      18.92       7.60
H      12.44      15.16       8.75
H      13.37      14.35       6.79
S      12.06      17.69       9.86
H      10.52      19.78       8.77
H       7.59      16.30       9.48
H       9.79      16.08      10.12
H       8.31      20.01       8.15
O      14.61      14.37       4.69
O       5.85      19.35       7.90
O      14.93      16.46       3.97
O       5.70      17.19       8.11
O      12.61      18.97      10.14
O      12.18      16.64      10.81
C      14.51      15.62       4.79
C      13.86      16.15       6.04
C      13.82      17.51       6.27
C      13.25      18.00       7.44
C      12.74      17.10       8.35
C      12.78      15.75       8.12
