29

H       6.26      12.65      19.50
C       6.45      13.47      19.12
S       6.75      14.33      21.67
C       7.02      15.76      19.38
C       7.03      15.91      18.01
O       6.34      14.01      15.08
C       6.74      14.86      17.20
C       6.44      13.63      17.77
H       6.23      12.91      17.22
C       6.75      14.55      19.92
C       6.72      14.98      15.72
H       7.86      11.75      21.52
C       8.34      13.65      21.98
H      11.31      14.50      22.89
C       8.55      12.30      21.80
H       9.20      15.38      22.53
O      12.32      10.76      22.59
O      13.13      12.80      22.95
H       7.20      16.49      19.94
H       7.23      16.74      17.64
H       9.96      10.86      21.93
C       9.81      11.77      22.04
C      10.61      13.94      22.61
O       7.12      16.05      15.19
C       9.36      14.48      22.40
O       6.67      15.61      22.28
O       5.80      13.32      21.99
C      12.22      12.01      22.67
C      10.84      12.59      22.42
