29

S       8.89       7.77      20.00
C       6.44       9.84      14.94
C       7.09       9.31      16.19
C       7.13       7.95      16.42
C       7.70       7.46      17.58
C       8.21       8.36      18.49
C       8.17       9.71      18.26
C       7.61      10.19      17.10
C      10.59       7.56      19.62
H       6.78       7.37      15.79
H       7.73       6.54      17.74
H       8.51      10.30      18.89
H       7.58      11.11      16.94
C      11.02       6.38      19.05
C      11.46       8.60      19.86
H      10.43       5.68      18.92
C      12.34       6.25      18.67
O       6.34      11.09      14.84
H      11.16       9.38      20.27
C      12.76       8.46      19.47
H      12.64       5.45      18.29
C      14.60       7.21      18.36
O       6.03       9.00      14.11
H      13.36       9.16      19.62
O      15.10       6.11      18.04
O      15.25       8.27      18.26
O       8.34       6.49      20.28
O       8.77       8.82      20.95
C      13.20       7.30      18.86
