29

S      -0.84      16.26      10.43
H      -2.95      15.85      14.64
H      -1.99      15.03      12.68
H      -1.21      18.79      11.54
O      -3.38      19.58      15.59
H      -2.14      19.59      13.49
H       2.92      13.94      12.14
H       3.63      17.65      10.81
O      -3.70      17.49      16.31
H       1.43      17.86      10.16
O       5.37      14.59      12.39
C      -3.28      18.33      15.49
O       5.53      16.76      12.17
C      -2.63      17.79      14.24
C      -2.59      16.44      14.01
C      -2.03      15.94      12.85
C      -1.52      16.85      11.93
C      -1.56      18.20      12.17
C      -2.12      18.68      13.33
C       0.87      16.04      10.81
O      -1.39      14.98      10.15
O      -0.96      17.31       9.47
C       1.30      14.87      11.38
C       3.04      16.95      10.96
C       1.73      17.08      10.57
C       3.48      15.78      11.56
C       2.62      14.73      11.76
C       4.88      15.69      12.07
H       0.70      14.17      11.51
