13

Cu      15.20      14.90      13.18
C      12.90      15.23      14.82
C      14.37      16.95      15.35
C      17.58      13.11      12.59
C      16.30      13.77      10.77
N      14.82      16.35      11.73
N      14.11      15.81      14.64
N      16.55      13.86      12.10
C      13.57      16.77      11.41
N      14.85      13.01      14.44
C      15.86      17.06      11.25
C      14.73      11.72      14.06
C      15.55      13.25      15.57
