13

Cu      15.19      15.08       0.05
C      14.75      18.20       0.91
C      15.57      16.67       2.43
C      14.36      12.98       2.21
C      12.90      14.71       1.71
N      16.59      16.07      -1.02
N      14.87      16.91       1.29
N      14.79      13.64      -1.38
N      14.12      14.13       1.53
C      17.61      16.83      -0.52
C      16.33      16.18      -2.35
C      13.54      13.21      -1.70
C      15.83      12.92      -1.87
