26

H       4.85      21.70      15.13
H       0.61      24.19      12.76
H       1.76      25.36      13.52
O       6.56      23.70       9.64
O       8.38      22.46      10.25
O       2.93      23.32      14.78
H       4.78      23.73      11.27
H       1.03      22.55      14.27
H       1.03      23.95      15.41
H       8.11      21.25      12.37
H       1.58      25.28      11.72
H       1.59      22.32      15.95
C       7.20      20.43      14.80
C       6.54      21.40      13.85
C       5.31      21.95      14.17
C       1.57      24.71      12.66
C       7.21      22.94      10.43
C       6.53      22.58      11.72
C       5.27      23.10      12.01
C       1.54      23.02      15.12
C       4.65      22.79      13.24
C       7.16      21.71      12.63
C       3.35      23.31      13.53
O       6.60      20.21      15.90
O       8.30      19.91      14.41
O       2.63      23.74      12.51
