35

C       3.21      -1.74      20.75
C       7.23      -0.94      18.76
C       4.78      -0.87      19.13
C       6.56       1.61      15.32
H       7.40       2.11      14.84
C       1.84      -0.24      22.21
O       1.44       0.96      22.40
C       3.53       0.64      20.57
O       6.09       3.38      13.23
C       4.15      -1.95      19.75
C       4.18       1.29      15.50
H       2.71      -2.59      21.23
O       1.44      -1.27      22.83
H       4.97       1.29      19.11
C       5.06       2.97      13.85
O       3.86       3.38      13.67
C       5.68       0.04      16.94
F       7.27      -1.72      19.87
C       6.77       0.67      16.32
C       5.27       1.93      14.91
F       8.27      -1.31      17.97
C       4.47       0.43      19.57
H       7.79       0.43      16.62
F       6.54      -2.45      16.20
H       4.38      -2.97      19.45
C       5.85      -1.03      18.03
F       6.13      -3.45      18.10
F       7.47       0.34      19.17
F       4.48      -2.65      16.89
H       3.17       1.54      15.17
C       2.88      -0.45      21.16
H       3.28       1.65      20.90
H       3.53      -0.15      16.96
C       4.38       0.34      16.50
C       5.75      -2.41      17.31
