35

C      -7.23      -0.94      18.76
C      -6.77       0.67      16.32
C      -4.47       0.43      19.57
H      -4.38      -2.97      19.45
C      -4.78      -0.87      19.13
H      -7.79       0.43      16.62
C      -3.53       0.64      20.57
H      -3.53      -0.15      16.96
O      -1.44       0.96      22.40
O      -3.86       3.38      13.67
C      -1.84      -0.24      22.22
C      -4.15      -1.95      19.75
C      -3.21      -1.74      20.75
O      -1.44      -1.27      22.83
C      -6.56       1.61      15.32
H      -4.97       1.29      19.11
C      -2.88      -0.45      21.16
O      -6.09       3.38      13.23
F      -7.27      -1.72      19.87
C      -4.18       1.29      15.50
C      -5.27       1.93      14.91
H      -3.17       1.54      15.17
F      -8.27      -1.31      17.97
H      -3.28       1.65      20.90
C      -5.75      -2.41      17.31
F      -6.13      -3.45      18.10
C      -5.06       2.97      13.85
H      -2.71      -2.59      21.23
F      -4.48      -2.66      16.89
F      -7.47       0.34      19.17
F      -6.54      -2.45      16.20
C      -5.68       0.04      16.94
C      -5.85      -1.03      18.03
C      -4.39       0.34      16.50
H      -7.40       2.11      14.84
