35

C      14.90       7.70       9.14
C      15.32       9.60       7.11
H      17.04       7.53       9.20
C      16.20       8.03       8.73
C      13.17       8.99       3.48
C      15.48      10.66       6.01
H      14.02      12.61       4.60
C      15.39      12.05       6.74
H      12.91       7.99       3.15
O      11.07      10.91       1.21
C      16.41       8.97       7.72
O      13.50       6.26      10.38
C      14.02       9.29       7.55
O      11.08       8.68       1.64
C      13.81       8.35       8.55
O      15.73       6.26      10.81
C      12.85      11.38       3.29
C      14.42      10.50       4.91
H      14.61       8.35       4.94
H      17.42       9.20       7.43
F      17.91      10.94       6.08
C      11.48       9.87       1.83
F      15.76      13.09       5.95
F      14.11      12.29       7.15
H      12.80       8.09       8.88
F      16.18      12.09       7.84
C      13.78      11.59       4.30
F      16.90      11.36       4.18
H      13.17       9.79       7.09
C      14.69       6.66      10.19
F      17.11       9.29       4.87
H      12.35      12.22       2.82
C      14.11       9.20       4.48
C      12.52      10.08       2.88
C      16.86      10.57       5.29
