156

Eu       9.91       5.41       6.35
Eu       2.93      -1.36       9.96
Eu      -2.86       5.76       9.95
Eu       4.12      12.55       6.34
H      -1.05       7.40       3.05
H      13.50       8.63       0.97
H       2.47       5.31      16.01
H       8.82       7.17       1.83
H       7.02       5.60      15.22
H       7.57       6.50      13.02
H       3.44       7.72      12.51
H       2.92       6.88      14.75
H       7.45       6.21      10.88
H       6.39       8.60       7.47
H       4.34       9.21      11.18
H       5.99      10.90      13.25
H       6.59       9.67      15.32
H       9.38      12.96       0.32
H       1.89      11.10      14.50
H      -0.06      12.71       1.05
H       0.53      11.83       3.25
H      10.40      10.60       3.82
H       9.84      11.41       1.59
H       0.44      12.11       5.41
H      -0.60       9.71       8.82
H      11.29       9.12       5.12
H       8.09       3.79      13.26
H      -6.46       2.55      15.33
H       4.57       5.87       0.29
H      -1.78       4.00      14.46
H       0.03       5.58       1.08
H      -0.52       4.69       3.28
H       3.60       3.47       3.79
H       4.13       4.30       1.55
H      -0.41       4.97       5.42
H       0.67       2.59       8.84
H       2.71       1.98       5.12
H       1.06       0.29       3.05
H       0.46       1.52       0.98
H      -2.34      -1.77      15.97
H       5.15       0.08       1.79
H       7.11      -1.53      15.25
H       6.52      -0.66      13.04
H      -3.35       0.59      12.47
H      -2.79      -0.23      14.71
H       6.61      -0.93      10.89
H       7.63       1.48       7.49
H      -4.25       2.07      11.19
C      10.52       6.32       3.72
C      10.85       7.18       2.54
C      12.16       7.61       2.31
C      12.48       8.30       1.14
C      11.49       8.56       0.16
C      10.16       8.17       0.44
C       9.84       7.50       1.62
C       4.92       6.15      15.17
C       6.24       6.09      14.65
C       6.54       6.58      13.39
C       5.54       7.18      12.58
C       4.24       7.28      13.11
C       3.94       6.78      14.37
C       5.83       7.63      11.21
C       6.84       6.99      10.45
C       7.01       7.33       9.10
C       6.24       8.34       8.51
C       5.29       9.02       9.27
C       5.08       8.65      10.61
C       8.00       6.60       8.25
C       4.49      10.14       8.68
C       3.58      -2.27      12.59
C       3.91      11.10      13.77
C       5.23      10.68      14.00
C       5.57      10.00      15.16
C       4.59       9.72      16.14
C       3.25      10.11      15.88
C       2.91      10.78      14.71
C      11.83      12.14       1.13
C      13.15      12.22       1.64
C      -0.50      11.74       2.90
C      -1.48      11.14       3.72
C      11.18      11.03       3.21
C      10.86      11.51       1.95
C      -1.18      10.69       5.08
C      -0.17      11.32       5.84
C       0.02      10.98       7.18
C      -0.76       9.97       7.78
C      -1.72       9.29       7.02
C      -1.93       9.67       5.69
C       1.00      11.70       8.04
C      -2.51       8.16       7.60
C      -3.46       4.87      12.58
C      -3.81       4.01      13.76
C      -5.12       3.57      14.00
C      -5.43       2.89      15.17
C      -4.44       2.62      16.14
C      -3.11       3.01      15.85
C      -2.80       3.68      14.68
C       2.12       5.03       1.13
C       0.81       5.09       1.65
C       0.50       4.60       2.91
C       1.50       4.01       3.72
C       2.81       3.91       3.19
C       3.11       4.40       1.93
C       1.21       3.56       5.09
C       0.21       4.19       5.85
C       0.03       3.85       7.20
C       0.81       2.85       7.79
C       1.76       2.17       7.03
C       1.97       2.53       5.69
C      -0.94       4.58       8.05
C       2.56       1.04       7.62
C       3.47      13.45       3.70
C       3.14       0.08       2.52
C       1.82       0.51       2.30
C       1.48       1.19       1.14
C       2.46       1.46       0.15
C       3.80       1.08       0.42
C       4.13       0.40       1.58
C      -4.79      -0.95      15.16
C      -6.11      -1.03      14.66
C       7.54      -0.55      13.40
C       8.53       0.04      12.58
C      -4.13       0.15      13.09
C      -3.81      -0.33      14.35
C       8.23       0.49      11.22
C       7.22      -0.14      10.46
C       7.03       0.22       9.13
C       7.80       1.22       8.53
C       8.76       1.89       9.29
C       8.98       1.52      10.62
C       6.04      -0.49       8.27
C       9.55       3.01       8.69
O      11.46       5.72       4.34
O       9.29       6.22       4.08
O       3.63      10.68       9.44
O       4.74      10.50       7.48
O       7.78       6.48       7.01
O       9.05       6.10       8.80
O       4.51      -1.67      11.95
O       2.35      -2.18      12.25
O      10.62       7.61       6.83
O      -2.28       7.82       8.81
O       0.76      11.82       9.27
O       2.07      12.18       7.49
O      -4.39       5.51      11.98
O      -2.24       4.92      12.20
O       3.42       0.51       6.86
O       2.31       0.68       8.82
O      -0.72       4.71       9.29
O      -2.00       5.08       7.50
O       2.54      12.85       4.34
O       4.70      13.37       4.04
O      -3.58       3.58       9.45
O       9.32       3.34       7.48
O       6.27      -0.57       7.02
O       4.98      -1.00       8.80
