522

C      -4.47      17.48      11.90
C      -5.25      16.29      11.88
C      -3.85      15.30      13.74
C      -2.99      16.43      13.71
C      -1.92      16.49      14.64
C      -1.71      15.50      15.62
C      -2.58      14.39      15.63
C      -3.62      14.28      14.69
C      -6.29      16.17      10.93
C      -6.54      17.19       9.99
C      -5.78      18.37      10.00
C      -4.77      18.51      10.98
C      -3.54      18.78      13.72
C      -2.68      19.90      13.76
C      -1.30      18.93      11.86
C      -2.07      17.74      11.89
C      -0.29      19.07      10.88
C      -0.07      18.07       9.92
C      -0.80      16.87       9.95
C      -1.78      16.71      10.96
C      -4.61      18.71      14.65
C      -4.79      19.68      15.66
C      -3.90      20.78      15.70
C      -2.88      20.90      14.74
C      -3.27      17.61      12.81
C      -1.54      20.05      12.81
C      -5.00      15.17      12.81
C      -5.98      19.43       8.96
C      -0.64      15.66      16.65
C      -0.64      15.83       8.89
C      -5.82      19.49      16.72
C      22.08       1.40      13.71
C      22.92       2.54      13.67
C      21.40       3.61      11.95
C      20.60       2.44      11.90
C      19.46       2.43      11.06
C      19.06       3.56      10.32
C      19.86       4.72      10.38
C      21.03       4.73      11.17
C      24.10       2.56      14.45
C      24.47       1.46      15.23
C      23.65       0.31      15.30
C      22.45       0.31      14.56
C      19.67       1.14      13.70
C      18.82       0.00      13.65
C      20.37      -1.09      11.97
C      21.16       0.08      11.91
C      20.77      -2.23      11.22
C      21.95      -2.22      10.46
C      22.74      -1.05      10.37
C      22.31       0.09      11.08
C      19.30       2.23      14.54
C      18.08       2.25      15.25
C      17.24       1.12      15.15
C      17.62      -0.00      14.39
C      20.88       1.26      12.81
C      19.15      -1.18      12.81
C      22.61       3.71      12.81
C      24.06      -0.90      16.07
C      17.78       3.54       9.54
C      24.04      -1.04       9.64
C      17.65       3.47      15.98
C      19.33      14.62       5.65
C      18.55      15.23       4.64
C      19.96      14.11       2.84
C      20.81      13.57       3.84
C      21.89      12.74       3.43
C      22.09      12.39       2.07
C      21.22      12.93       1.11
C      20.18      13.80       1.48
C      17.51      16.12       5.00
C      17.27      16.42       6.35
C      18.02      15.82       7.38
C      19.03      14.90       7.01
C      20.26      12.39       5.87
C      21.13      11.80       6.82
C      22.50      13.93       6.93
C      21.73      14.49       5.88
C      23.51      14.70       7.54
C      23.73      16.04       7.15
C      23.00      16.61       6.09
C      22.02      15.81       5.46
C      19.19      11.61       5.34
C      19.01      10.26       5.68
C      19.90       9.68       6.61
C      20.92      10.45       7.20
C      20.53      13.77       5.31
C      22.26      12.54       7.42
C      18.81      14.99       3.19
C      17.83      16.18       8.81
C      23.16      11.41       1.70
C      23.16      18.05       5.72
C      17.98       9.44       4.98
C      -1.72       4.26      19.97
C      -0.88       3.73      20.98
C      -2.40       4.68      22.77
C      -3.20       5.30      21.78
C      -4.34       6.04      22.19
C      -4.74       6.12      23.54
C      -3.94       5.48      24.51
C      -2.77       4.79      24.13
C       0.30       3.04      20.61
C       0.67       2.91      19.26
C      -0.15       3.42      18.24
C      -1.35       4.07      18.61
C      -4.13       4.39      19.75
C      -4.98       5.01      18.79
C      -3.43       7.01      18.68
C      -2.64       6.47      19.73
C      -3.03       8.23      18.07
C      -1.85       8.88      18.46
C      -1.07       8.38      19.52
C      -1.49       7.19      20.16
C      -4.51       3.13      20.27
C      -5.73       2.50      19.94
C      -6.57       3.15      19.01
C      -6.18       4.37      18.42
C      -2.92       5.11      20.31
C      -4.65       6.33      18.19
C      -1.20       3.89      22.42
C       0.26       3.36      16.80
C      -6.02       6.80      23.91
C       0.24       9.01      19.89
C      -6.15       1.25      20.63
C       7.43      21.46       6.30
C       6.65      22.03       7.33
C       8.05      24.14       7.26
C       8.91      23.55       6.30
C       9.99      24.33       5.78
C      10.19      25.67       6.15
C       9.32      26.24       7.11
C       8.28      25.48       7.67
C       5.61      21.27       7.92
C       5.36      19.95       7.51
C       6.12      19.36       6.47
C       7.13      20.14       5.86
C       8.36      22.39       4.26
C       9.23      21.86       3.27
C      10.60      20.70       5.06
C       9.83      21.32       6.07
C      11.61      19.78       5.43
C      11.83      19.45       6.77
C      11.10      20.08       7.80
C      10.12      21.03       7.43
C       7.29      23.23       3.85
C       7.11      23.62       2.51
C       8.00      23.10       1.54
C       9.02      22.21       1.91
C       8.63      22.18       5.73
C      10.36      20.96       3.61
C       6.91      23.40       7.85
C       5.93      17.94       6.07
C      11.26      26.48       5.49
C      11.26      19.68       9.23
C       6.08      24.63       2.15
C      10.18      -2.59      19.32
C      11.02      -3.20      18.35
C       9.50      -5.23      18.28
C       8.70      -4.68      19.32
C       7.56      -5.41      19.75
C       7.16      -6.62      19.14
C       7.96      -7.13      18.11
C       9.13      -6.46      17.70
C      12.20      -2.54      17.94
C      12.57      -1.31      18.50
C      11.75      -0.68      19.46
C      10.55      -1.32      19.83
C       7.77      -2.47      19.54
C       6.92      -1.95      20.56
C       8.47      -2.86      22.35
C       9.26      -3.49      21.36
C       8.87      -2.93      23.70
C      10.05      -3.60      24.07
C      10.84      -4.27      23.11
C      10.41      -4.22      21.76
C       7.39      -2.29      18.19
C       6.18      -1.69      17.81
C       5.34      -1.20      18.84
C       5.72      -1.30      20.19
C       8.98      -3.31      19.88
C       7.25      -2.09      22.00
C      10.70      -4.53      17.77
C      12.16       0.60      20.12
C       5.88      -7.28      19.54
C      12.14      -4.90      23.47
C       5.75      -1.67      16.38
C      -6.59      21.69      17.52
C       5.79     -11.08      19.69
C       5.82      -9.77      19.17
C      -6.58      23.00      16.99
C      -5.93      23.98      14.93
C      16.21       2.83      17.88
C      13.86       3.26      18.00
C      13.66       2.07      18.74
C      16.03       1.64      18.62
C      17.03      -0.50      18.66
C      23.91      -2.61       7.73
C      13.20      28.98       7.61
C      12.14      28.39       6.88
C      22.85      -3.18       6.99
C      20.49      -2.95       6.96
C       1.69      15.83       8.10
C       2.37      16.58       5.93
C       3.60      17.05       6.45
C       2.92      16.29       8.63
C       3.62      17.22      10.69
C      17.21       7.64       6.49
C      17.69       5.32       6.18
C      17.72       5.12       7.57
C      17.22       7.45       7.89
C      17.87       8.75       9.76
C      -7.59      -0.07      19.12
C      -9.94      -0.39      19.43
C     -10.14      -0.43      18.04
C      -7.78      -0.12      17.72
C      -6.77       0.92      15.85
C       0.11      11.44      19.49
C       1.29      12.58      17.75
C       0.24      13.51      17.61
C      -0.95      12.37      19.36
C      -3.31      12.28      19.58
C     -10.21      18.73       6.13
C      -9.53      20.24       7.86
C      -8.31      19.55       8.00
C      -8.98      18.04       6.25
C      -8.28      15.79       6.03
C      -6.59       7.39      28.99
C      -6.11       8.82      27.13
C      -6.08       7.71      26.26
C      -6.58       6.27      28.12
C      -5.93       4.00      28.31
C       4.31       0.30      15.99
C       1.96       0.20      15.56
C       1.76       1.42      16.22
C       4.13       1.54      16.65
C       5.13       2.64      18.49
C      12.01      -5.76      25.78
C      13.20      -4.84      27.64
C      12.14      -5.18      28.51
C      10.95      -6.12      26.65
C       8.59      -6.27      26.46
C      13.59      18.99       9.62
C      14.28      16.74      10.06
C      15.50      16.96       9.39
C      14.82      19.22       8.96
C      15.53      20.54       7.13
H      -3.97      21.48      16.43
H      -2.25      21.71      14.79
H       0.26      19.94      10.82
H       0.62      18.23       9.18
H      -2.35      15.86      10.97
H      -5.22      17.89      14.64
H      -1.31      17.31      14.64
H      -2.47      13.65      16.32
H      -4.23      13.46      14.73
H      -4.20      19.36      10.98
H      -6.85      15.32      10.89
H      -7.27      17.04       9.29
H      -1.72      20.96      12.23
H      -0.63      20.19      13.39
H      -4.83      14.26      12.21
H      -5.90      15.02      13.40
H      -5.69      19.03       7.99
H      -5.30      20.27       9.14
H      -1.12      15.80      17.63
H      -0.08      16.58      16.47
H      -0.90      16.27       7.93
H      -1.36      15.02       9.04
H      -6.35      18.54      16.57
H      -5.31      19.39      17.68
H      16.33       1.11      15.62
H      16.98      -0.80      14.34
H      20.23      -3.10      11.27
H      22.25      -3.08      10.00
H      22.89       0.93      11.05
H      19.89       3.05      14.57
H      18.87       1.59      11.04
H      19.61       5.56       9.87
H      21.59       5.59      11.20
H      21.86      -0.52      14.58
H      24.72       3.37      14.41
H      25.35       1.50      15.75
H      19.25      -2.04      13.48
H      18.31      -1.37      12.14
H      23.46       3.89      12.15
H      22.49       4.58      13.46
H      24.95      -1.33      15.60
H      23.29      -1.67      16.00
H      17.08       4.24      10.01
H      17.31       2.56       9.61
H      24.70      -1.78      10.10
H      24.54      -0.08       9.76
H      18.39       4.27      15.86
H      16.74       3.85      15.51
H      19.83       8.69       6.85
H      21.55      10.00       7.86
H      24.06      14.32       8.32
H      24.42      16.59       7.66
H      21.45      16.23       4.71
H      18.58      12.03       4.64
H      22.49      12.33       4.14
H      21.33      12.70       0.12
H      19.57      14.17       0.76
H      19.60      14.48       7.74
H      16.95      16.58       4.28
H      16.53      17.10       6.58
H      22.09      12.59       8.50
H      23.18      11.97       7.25
H      18.97      15.95       2.71
H      17.90      14.54       2.77
H      18.12      17.23       8.95
H      18.50      15.61       9.45
H      22.68      10.50       1.33
H      23.72      11.11       2.59
H      22.90      18.66       6.59
H      22.44      18.32       4.95
H      17.46      10.04       4.23
H      18.49       8.65       4.42
H      -7.47       2.75      18.76
H      -6.82       4.81      17.75
H      -3.58       8.61      17.30
H      -1.56       9.71      17.95
H      -0.91       6.80      20.90
H      -3.91       2.69      20.98
H      -4.93       6.48      21.48
H      -4.20       5.51      25.50
H      -2.22       4.33      24.86
H      -1.95       4.47      17.88
H       0.92       2.66      21.33
H       1.55       2.45      19.04
H      -4.55       6.18      17.11
H      -5.50       7.00      18.36
H      -0.34       4.36      22.91
H      -1.31       2.88      22.85
H       1.15       3.98      16.67
H      -0.51       3.81      16.17
H      -6.72       6.04      24.28
H      -6.49       7.23      23.03
H       0.90       8.97      19.02
H       0.74       8.42      20.67
H      -5.41       0.96      21.38
H      -7.07       1.47      21.20
H       7.93      23.38       0.56
H       9.65      21.85       1.19
H      12.16      19.30       4.71
H      12.52      18.73       7.00
H       9.55      21.46       8.16
H       6.68      23.63       4.56
H      10.59      23.91       5.07
H       9.43      27.21       7.40
H       7.67      25.92       8.36
H       7.70      19.72       5.13
H       5.05      21.66       8.68
H       4.63      19.42       7.98
H      10.18      20.00       3.12
H      11.28      21.39       3.20
H       7.07      23.34       8.93
H       6.00      23.99       7.67
H       6.21      17.30       6.91
H       6.60      17.68       5.25
H      10.78      27.26       4.89
H      11.82      25.87       4.79
H      11.00      18.62       9.32
H      10.54      20.22       9.86
H       5.56      24.98       3.04
H       6.59      25.51       1.74
H       4.43      -0.79      18.61
H       5.08      -0.95      20.91
H       8.33      -2.46      24.43
H      10.35      -3.57      25.05
H      10.99      -4.67      21.05
H       7.99      -2.68      17.45
H       6.97      -5.01      20.49
H       7.71      -8.00      17.64
H       9.69      -6.86      16.94
H       9.96      -0.88      20.54
H      12.82      -2.97      17.26
H      13.45      -0.88      18.21
H       7.35      -1.08      22.41
H       6.41      -2.57      22.50
H      11.56      -5.19      17.94
H      10.59      -4.40      16.69
H      13.05       0.41      20.73
H      11.39       0.93      20.83
H       5.18      -7.22      18.71
H       5.41      -6.73      20.36
H      12.80      -4.13      23.87
H      12.64      -5.28      22.57
H       6.49      -2.17      15.76
H       4.84      -2.26      16.29
H       5.94     -11.25      20.68
H      -6.28      24.05      13.90
H      -4.96      23.47      14.92
H       6.09      -8.67      15.32
H       6.90      -8.79      20.55
H      -7.24      20.72      15.83
H      13.08       3.88      17.78
H      17.96      -0.98      18.99
H      16.95      -0.63      17.58
H      16.20      -1.01      19.15
H      11.71       1.71      18.42
H      18.26       2.80      17.85
H      14.04      28.45       7.84
H      19.74      -2.24       6.63
H      20.41      -3.07       8.04
H       8.40      29.76       6.47
H      12.45      26.43       7.20
H      23.20      -0.69       7.77
H       2.16      16.67       4.93
H       3.81      16.92      11.72
H       2.83      17.97      10.69
H       4.54      17.67      10.30
H       4.16      18.40       5.06
H       0.99      14.91       9.78
H      17.84       4.55       5.53
H      17.52       9.60      10.34
H      18.84       9.00       9.33
H      17.99       7.90      10.45
H      18.80       3.42       7.73
H      16.56       9.59       6.49
H     -10.72      -0.51      20.09
H      -5.85       0.88      15.27
H      -6.85       1.92      16.28
H      -7.61       0.75      15.17
H      23.61       0.02      17.88
H      -5.54      -0.03      19.12
H       2.14      12.65      17.18
H      -4.07      12.21      20.36
H      -3.40      11.40      18.94
H      -3.51      13.18      19.00
H       0.55      14.22      15.75
H      -0.60      10.45      21.13
H      -9.75      21.05       8.43
H      -8.09      15.06       5.25
H      -9.07      15.42       6.67
H      -7.36      15.91       6.62
H      -7.74      20.08       9.86
H      24.80      17.74       4.48
H      -5.96       9.77      26.79
H      -6.28       3.07      28.76
H      -4.96       4.25      28.75
H      -5.81       3.83      27.23
H      -5.00       8.42      24.72
H       4.66      23.24       1.52
H       1.18      -0.31      15.13
H       6.06       3.17      18.74
H       5.05       1.77      19.14
H       4.30       3.32      18.68
H      -0.19       1.33      16.69
H       6.36       0.29      16.03
H      14.04      -4.38      27.98
H       7.83      -6.91      26.01
H       8.50      -5.27      26.02
H       8.39      -6.21      27.53
H      24.35      12.91       0.90
H      11.30      -6.70      24.10
H      14.06      15.83      10.48
H      15.71      21.59       6.87
H      14.73      20.17       6.48
H      16.44      19.98       6.93
H      16.06      15.08       8.92
H      12.89      20.91       9.58
N      -6.37      21.55      18.85
N       5.55      -9.62      17.84
N       6.02      -8.67      20.04
N      -6.89      20.52      16.78
N      15.12       3.59      17.62
N      14.77       1.33      19.03
N      12.37       1.75      19.21
N      17.47       3.32      17.45
N      24.99      -3.39       8.00
N      11.08      29.19       6.58
N      12.28      27.06       6.41
N      23.95      -1.27       8.17
N       1.48      16.00       6.76
N       3.82      16.85       7.78
N       4.56      17.60       5.57
N       0.69      15.17       8.84
N      17.43       6.56       5.70
N      17.46       6.19       8.36
N      17.92       3.81       8.08
N      16.91       8.87       5.85
N      -8.68      -0.22      19.91
N      -9.04      -0.32      17.25
N      24.27      -0.68      17.53
N      -6.33       0.06      19.76
N       1.19      11.60      18.68
N      -0.82      13.37      18.45
N       0.37      14.58      16.70
N       0.15      10.39      20.43
N     -10.42      19.81       6.94
N      -8.08      18.50       7.17
N      -7.34      20.03       8.92
N      24.49      18.42       5.18
N      -6.37       8.62      28.45
N      -6.35       6.49      26.80
N      -5.89       7.92      24.87
N       5.01      24.16       1.22
N       3.22      -0.31      15.46
N       2.87       2.05      16.71
N       0.46       1.99      16.26
N       5.57      -0.32      15.79
N      13.09      -5.15      26.32
N      11.08      -5.83      27.97
N      24.18      11.91       0.74
N      12.05      -6.06      24.40
N      13.38      17.75      10.15
N      15.72      18.21       8.90
N      16.47      15.92       9.35
N      12.59      19.96       9.83
O      -6.91      23.24      15.68
O      17.10       0.88      19.03
O      21.78      -2.43       6.59
O       3.25      16.05       9.94
O      16.89       8.47       8.75
O      -6.71      -0.09      16.87
O      -2.02      12.34      20.22
O      -8.65      17.03       5.40
O      -6.91       5.02      28.57
O       5.19       2.27      17.10
O       9.88      -6.85      26.19
O      15.15      20.47       8.51
