85

Zn       0.91       2.43       5.34
Zn       2.65       8.00       5.34
Zn       0.00       0.00       0.00
H      13.66      14.49       7.35
H       9.40       6.27       3.92
H       8.35       4.70       7.47
H       4.95       7.55       7.47
H      11.21       4.86       3.91
H       7.03       6.56       7.63
H       7.21       6.58       3.62
H       5.13       7.54       3.59
H       8.59       6.79      10.16
H      12.53       9.23       0.34
H      10.25       9.18       0.37
H      10.86       6.71      10.10
H       3.09       1.52       3.33
H       7.35       9.74       6.75
H       8.41      11.30       3.21
H      11.80       8.46       3.21
H       5.54      11.15       6.77
H       9.72       9.45       3.04
H       9.54       9.43       7.06
H      11.62       8.47       7.09
H       8.17       9.22       0.52
H       4.23       6.78      10.34
H       6.50       6.83      10.31
H       5.89       9.30       0.58
C      10.01       3.92       6.64
C       2.16       5.47       6.61
C       5.21      14.51       8.18
C       7.35       6.40       5.63
C       9.53       5.67       4.62
C       8.90       4.74       6.72
C       5.41       7.33       6.69
C       2.33       5.11       5.17
C       1.94       4.79       7.79
C       8.62       5.62       5.67
C      10.62       4.82       4.62
C       6.66       6.73       6.80
C       6.77       6.74       4.42
C       5.51       7.33       4.41
C       8.29       4.85      10.64
C       9.02       5.99      10.34
C      12.06      10.01       0.16
C      10.69       9.98       0.20
C      10.39       5.94      10.31
C       6.74      12.09       4.03
C      14.60      10.54       4.06
C      11.54       1.50       2.49
C       9.41       9.61       5.04
C       7.23      10.34       6.05
C       7.85      11.27       3.95
C      11.35       8.68       3.99
C      14.42      10.90       5.51
C      14.82      11.22       2.88
C       8.13      10.39       5.00
C       6.14      11.19       6.05
C      10.09       9.28       3.88
C       9.99       9.27       6.26
C      11.24       8.68       6.26
C       8.46      11.16       0.04
C       7.73      10.02       0.34
C       4.69       6.00      10.51
C       6.06       6.03      10.48
C       6.36      10.07       0.37
N      13.73       6.77       6.95
N      10.86       3.94       5.61
N       4.82       7.60       5.52
N      13.58       6.91       8.26
N      13.38       5.71       8.78
N      11.10       4.82      10.57
N       3.02       9.24       3.73
N       5.90      12.07       5.07
N      11.93       8.41       5.15
N       3.18       9.10       2.42
N       3.37      10.30       1.90
N       5.66      11.19       0.11
O       2.31       3.91       4.80
O       2.53       6.09       4.39
O       4.96      13.63       7.35
O       5.32      14.28       9.43
O      14.44      12.10       5.88
O      14.23       9.92       6.28
O      11.80       2.38       3.33
O      11.44       1.73       1.24
