52

Gd       3.90       5.04       0.98
Gd       4.29       5.04       4.80
Gd       7.40       6.27      -0.98
Gd       7.00       6.28      -4.80
H       9.81       4.19      -0.29
H       8.22       3.71      -0.04
H       1.49       7.13       0.29
H       3.08       7.60       0.04
C       6.67       4.85       2.07
C       1.59       5.03       3.81
C       9.14       4.60       1.57
C       4.30       7.83       3.00
C       4.08       2.27       3.00
C       5.50       5.94       7.10
C       6.10       6.69       8.21
C       2.20       2.82      -2.27
C       2.76       3.55      -1.10
C       4.63       6.46      -2.07
C       9.70       6.28      -3.81
C       2.15       6.71      -1.57
C       6.99       3.48      -3.00
C       7.21       9.04      -3.00
C       5.80       5.37      -7.10
C       5.20       4.62      -8.21
C       9.10       8.49       2.27
C       8.53       7.76       1.10
N       8.93       4.41       0.19
N       2.36       6.91      -0.19
O       6.35       4.80       0.83
O       5.74       4.99       2.94
O       2.53       5.07       2.92
O       1.89       5.09       5.05
O       4.17       7.25       1.88
O       4.22       7.20       4.13
O       4.10       2.88       1.88
O       4.12       2.86       4.14
O       4.22       5.72       7.06
O       6.22       5.51       6.11
O       4.02       3.82      -1.08
O       2.00       3.94      -0.14
O       4.94       6.52      -0.83
O       5.56       6.32      -2.94
O       8.77       6.24      -2.92
O       9.41       6.23      -5.05
O       7.12       4.06      -1.88
O       7.08       4.12      -4.13
O       7.20       8.44      -1.88
O       7.17       8.45      -4.14
O       7.07       5.59      -7.06
O       5.07       5.81      -6.11
O       7.27       7.49       1.08
O       9.29       7.37       0.14
