32

H      13.39      15.69       4.34
H      16.88      16.53       6.89
H      14.26      17.24      10.25
H      10.76      16.40       7.70
H       9.12      15.35       3.86
H      18.52      17.58      10.73
C      11.28      15.48       3.96
C      12.39      15.73       4.77
C      11.47      15.20       2.50
C      17.84      17.05       8.75
C      16.73      16.79       7.93
C      19.22      16.90       8.19
C      16.37      17.45      10.63
C      15.26      17.20       9.82
C      16.18      17.73      12.08
C       9.81      15.88       5.84
C      10.91      16.14       6.65
C       8.43      16.03       6.39
C      12.22      16.06       6.12
C      13.34      16.34       6.94
C       9.98      15.54       4.49
C      15.43      16.87       8.46
C      14.30      16.59       7.64
C      17.66      17.38      10.09
O      10.41      14.97       1.82
O      12.66      15.25       2.06
O      20.18      17.15       8.99
O      19.31      16.49       6.98
O      17.23      17.96      12.77
O      14.98      17.68      12.53
O       7.46      15.77       5.60
O       8.34      16.44       7.60
