32

H      18.65       6.07       7.70
H      20.38       9.23      10.25
H      20.38      11.94       6.89
H      18.65       8.79       4.34
H      17.21       4.77       3.86
H      21.82      13.25      10.73
C      17.90       5.29       5.84
C      18.43       6.29       6.65
C      17.68       3.92       6.39
C      21.13      11.21      10.63
C      20.60      10.20       9.82
C      21.35      10.95      12.08
C      21.13      12.73       8.75
C      20.60      11.73       7.93
C      21.35      14.10       8.19
C      17.90       6.81       3.96
C      18.43       7.82       4.77
C      17.68       7.07       2.50
C      18.70       7.57       6.12
C      19.27       8.58       6.94
C      17.62       5.55       4.49
C      20.33      10.45       8.46
C      19.76       9.44       7.64
C      21.41      12.47      10.09
O      17.18       3.05       5.60
O      18.05       3.72       7.60
O      21.86      11.91      12.77
O      20.99       9.81      12.53
O      21.85      14.97       8.98
O      20.98      14.29       6.98
O      17.18       6.11       1.82
O      18.04       8.21       2.06
