35

C      -3.18      15.35      17.99
C       0.11      12.83      19.30
C      -1.24       9.31      16.94
C      -6.66      13.71      17.06
Ba      -3.16      12.28      17.62
Ba      -0.34       9.36      20.12
Ba       1.03      12.00      16.34
Ba      -4.25       8.33      19.12
Ba      -7.11      11.52      19.50
C      -1.60       5.97      18.95
C      -6.63       9.92      16.75
C      -7.71       8.62      20.89
O      -9.80      11.94      19.40
O      -8.61       9.53      20.96
O      -5.76      13.05      17.68
O      -6.63       8.80      20.23
O      -7.91      13.59      17.34
O      -5.61      10.04      17.52
O      -0.54      13.01      18.21
O      -7.78      10.39      17.07
O      -3.54      12.14      14.91
O      -4.46      11.13      20.05
O      -3.01      14.85      16.82
O      -2.24      11.26      20.30
O      -3.30      14.67      19.07
O      -1.31      11.93      15.20
C      -3.42      11.46      20.73
O      -2.34       9.35      17.60
O      -0.16       9.85      17.39
O      -0.71       6.82      19.33
C      -2.34      12.35      14.54
O      -1.09       8.60      22.70
O      -2.76       8.33      21.22
O      -2.77       6.26      18.52
C      -2.13       7.99      22.30
