14

C      11.98      14.96       7.37
O      11.91      13.68       7.41
Zn      13.57      12.56       7.74
Zn      14.85      14.78       7.74
O      13.05      15.66       7.41
O      13.33      12.86       9.73
O      13.95      12.51       5.75
O      16.50      13.66       8.06
O      15.36      11.69       8.06
C      16.44      12.39       8.11
O      15.09      14.48       5.75
O      14.47      14.84       9.73
C      14.65      13.42       5.19
C      13.76      13.93      10.29
