14

Zn       4.09      14.78       7.74
C       5.18      13.93      10.29
Zn       5.38      12.56       7.74
C       6.96      14.96       7.37
O       7.03      13.68       7.41
O       4.48      14.84       9.73
C       2.51      12.39       8.11
O       2.44      13.66       8.06
C       4.29      13.42       5.19
O       5.00      12.51       5.75
O       3.86      14.48       5.75
O       3.58      11.69       8.06
O       5.62      12.86       9.73
O       5.89      15.66       7.41
