21

Ni      -2.24      -4.00       6.57
N      -4.01      -5.16       6.89
N      -2.15      -3.23       8.52
H      -3.58      -6.00       7.30
H      -1.71      -3.94       9.13
C      -0.95      -6.31       8.16
C       0.56      -3.32       5.27
C      -1.02      -5.07       4.03
C      -1.21      -2.10       8.46
C      -0.01      -2.51       7.61
H      -0.89      -2.01       5.84
H      -2.80      -4.07       4.01
C      -3.48      -1.63       4.99
C      -5.05      -4.70       7.87
C      -3.48      -2.93       9.11
C      -3.28      -5.91       4.68
C      -4.48      -5.51       5.54
N      -1.26      -5.62       7.25
N      -0.48      -2.85       6.25
N      -2.34      -4.77       4.62
N      -3.23      -2.34       5.91
