17

N      -1.23       0.72       4.75
C      -5.89      -1.21       3.91
N      -4.08      -3.68       2.31
C      -3.75       1.43       2.33
N      -1.38      -0.89       1.27
C      -3.48      -1.63       4.99
C      -2.32      -0.83       1.98
C      -2.20       0.31       4.22
W      -3.96      -0.49       3.27
C      -4.04      -2.55       2.64
N      -3.23      -2.34       5.91
N      -3.67       2.48       1.79
N      -6.95      -1.61       4.25
N      -5.94      -0.38       0.64
N      -5.15       1.84       5.27
C      -5.19      -0.40       1.56
C      -4.79       0.96       4.57
