728

H       3.29      35.09       0.19
H       1.75      35.30      37.60
H      37.38      37.68      35.22
H      35.88       0.30      34.98
H      37.29       1.95      38.57
H       1.74      38.57       1.94
H      37.29      37.35       0.73
H      35.87      39.01       4.32
H      37.37       1.62       4.07
H       1.74       0.73      37.36
H       1.74       4.00       1.70
H       3.29       4.22      39.11
H       0.53      37.16      36.23
H      38.53      36.25      37.13
H      38.53       3.05       2.17
H       0.52       2.14       3.08
H      34.89       2.38      37.34
H       4.10      37.48       2.44
H      34.89      36.91       1.96
H       4.10       1.82      36.86
H      16.40       4.22      19.80
H      17.95       4.01      17.99
H      21.55       1.62      15.61
H      23.05      39.01      15.37
H      21.63      37.35      18.96
H      17.95       0.73      21.56
H      21.63       1.95      20.35
H      23.04       0.30      23.94
H      21.54      37.68      23.69
H      17.95      38.57      17.74
H      17.94      35.30      21.32
H      16.40      35.09      19.50
H      19.16       2.14      16.61
H      20.39       3.05      17.51
H      20.39      36.25      21.79
H      19.16      37.16      22.69
H      24.02      36.91      17.73
H      15.59       1.82      22.06
H      24.03       2.38      21.58
H      15.58      37.48      17.25
H      14.09      32.93      10.19
H      13.95      31.36       8.40
H      11.61      27.76       5.94
H       9.71      26.35       5.60
H       7.90      27.91       9.04
H      10.44      31.54      11.73
H      11.79      27.91      10.64
H       9.97      26.35      14.09
H       8.08      27.76      13.75
H       9.25      31.54       7.96
H       5.73      31.36      11.29
H       5.60      32.93       9.49
H      12.15      30.16       6.92
H      12.95      28.93       7.91
H       6.74      28.93      11.77
H       7.53      30.16      12.77
H       6.93      26.05       7.85
H      11.61      33.96      12.14
H      12.76      26.05      11.84
H       8.08      33.96       7.55
H       5.60       6.37      29.81
H       5.73       7.95      28.01
H       8.08      11.54      25.56
H       9.98      12.96      25.21
H      11.79      11.40      28.66
H       9.25       7.76      31.34
H       7.89      11.40      30.26
H       9.71      12.96      33.71
H      11.61      11.54      33.36
H      10.44       7.76      27.58
H      13.95       7.95      30.91
H      14.09       6.37      29.11
H       7.53       9.15      26.53
H       6.74      10.38      27.53
H      12.95      10.38      31.39
H      12.15       9.15      32.39
H      12.76      13.25      27.46
H       8.08       5.34      31.75
H       6.93      13.25      31.46
H      11.61       5.34      27.17
H      25.17       6.64      29.00
H      25.34       8.13      30.86
H      27.72      11.64      33.42
H      29.55      13.15      33.71
H      31.34      11.70      30.20
H      28.85       8.01      27.52
H      27.58      11.70      28.71
H      29.37      13.15      25.21
H      31.20      11.64      25.50
H      30.07       8.01      31.39
H      33.57       8.13      28.05
H      33.75       6.64      29.92
H      27.20       9.25      32.38
H      26.36      10.50      31.46
H      32.56      10.50      27.46
H      31.71       9.25      26.53
H      31.72      14.11      31.38
H      27.61       5.61      27.04
H      27.20      14.11      27.54
H      31.31       5.61      31.88
H      33.75      32.67       9.38
H      33.58      31.17      11.25
H      31.21      27.66      13.80
H      29.37      26.15      14.10
H      27.58      27.60      10.59
H      30.07      31.30       7.91
H      31.34      27.60       9.10
H      29.55      26.15       5.59
H      27.71      27.66       5.89
H      28.85      31.30      11.78
H      25.34      31.17       8.44
H      25.17      32.67      10.30
H      31.72      30.06      12.77
H      32.56      28.80      11.84
H      26.36      28.80       7.85
H      27.20      30.06       6.92
H      27.20      25.20      11.77
H      31.31      33.70       7.43
H      31.72      25.20       7.92
H      27.61      33.70      12.26
H      23.00      15.35      20.18
H      21.48      15.49      18.33
H      17.85      17.74      15.85
H      16.43      19.62      15.45
H      18.08      21.59      18.77
H      21.64      19.07      21.59
H      18.08      17.71      20.53
H      16.44      19.68      23.85
H      17.85      21.56      23.45
H      21.64      20.23      17.71
H      21.48      23.81      20.97
H      23.00      23.95      19.12
H      20.28      17.25      16.79
H      19.07      16.48      17.82
H      19.07      22.82      21.48
H      20.28      22.05      22.51
H      16.36      22.61      17.49
H      23.97      17.83      22.20
H      16.36      16.70      21.81
H      23.97      21.47      17.10
H      35.92      23.95       0.56
H      37.44      23.81      37.95
H       1.84      21.56      35.47
H       3.25      19.68      35.07
H       1.61      17.71      38.39
H      37.28      20.23       1.98
H       1.61      21.59       0.92
H       3.25      19.62       4.24
H       1.84      17.74       3.84
H      37.28      19.07      37.33
H      37.44      15.49       1.36
H      35.92      15.35      38.74
H      38.63      22.05      36.41
H       0.62      22.82      37.44
H       0.62      16.48       1.87
H      38.63      17.25       2.90
H       3.33      16.69      37.11
H      34.95      21.47       2.58
H       3.33      22.61       2.20
H      34.95      17.83      36.72
H      35.27      35.87       5.69
H      32.67      28.88       3.65
H      31.73      29.76       2.44
H      31.47      30.07       4.18
H      37.00      35.71       3.68
H      36.36      35.11       2.14
H      32.74      31.48       6.12
H      31.33      32.38       5.56
H      23.66       3.43      25.30
H      26.32      10.43      23.32
H      27.21       9.55      22.08
H      27.49       9.20      23.80
H      21.92       3.59      23.29
H      22.56       4.18      21.76
H      26.16       7.83      25.74
H      27.58       6.93      25.17
H      13.04      25.05      16.04
H      18.75      21.65      12.14
H      18.19      22.84      10.96
H      17.02      21.88      11.91
H      12.43      26.98      14.65
H      13.61      27.57      13.47
H      17.78      23.07      15.63
H      16.86      21.90      14.67
H       6.65      14.26      35.64
H       0.96      17.65      31.73
H       1.52      16.44      30.57
H       2.69      17.39      31.53
H       7.25      12.32      34.26
H       6.08      11.73      33.08
H       1.90      16.23      35.25
H       2.82      17.40      34.29
H      23.65      35.87      14.00
H      26.25      28.88      16.04
H      27.19      29.76      17.25
H      27.44      30.07      15.51
H      21.92      35.71      16.01
H      22.56      35.11      17.54
H      26.17      31.48      13.57
H      27.59      32.38      14.13
H      35.25       3.43      33.62
H      32.60      10.43      35.60
H      31.70       9.55      36.84
H      31.43       9.20      35.11
H      37.00       3.59      35.62
H      36.36       4.18      37.16
H      32.75       7.83      33.18
H      31.34       6.93      33.74
H       6.64      25.05       3.65
H       0.93      21.65       7.55
H       1.50      22.84       8.72
H       2.67      21.88       7.77
H       7.26      26.98       5.04
H       6.08      27.57       6.21
H       1.90      23.07       4.06
H       2.83      21.90       5.02
H      13.04      14.26      23.27
H      18.73      17.65      27.19
H      18.16      16.44      28.34
H      17.00      17.39      27.39
H      12.44      12.32      24.66
H      13.61      11.73      25.83
H      17.79      16.23      23.66
H      16.87      17.40      24.63
H       4.09       3.03      33.22
H       6.28      10.07      35.48
H       7.16       9.23      36.76
H       7.56       8.93      35.05
H       2.63       2.47      35.15
H       2.22       3.96      35.99
H       6.55       7.49      33.07
H       7.93       6.57      33.68
H      15.60      36.28      13.60
H      13.33      29.24      15.84
H      12.49      30.09      17.14
H      12.07      30.41      15.44
H      17.05      36.85      15.53
H      17.47      35.35      16.37
H      13.15      31.82      13.45
H      11.76      32.73      14.06
H      26.43      14.21      23.96
H      21.52      18.58      27.26
H      21.61      17.13      28.27
H      23.04      17.68      27.35
H      26.06      12.08      25.67
H      25.43      12.59      27.24
H      21.74      16.22      23.30
H      22.53      17.65      23.98
H      32.49      25.09       4.34
H      37.39      20.71       7.63
H      37.27      22.14       8.65
H      35.87      21.60       7.69
H      32.85      27.22       6.05
H      33.48      26.72       7.62
H      37.17      23.08       3.69
H      36.39      21.65       4.37
H      15.60       3.03      25.70
H      13.41      10.07      23.43
H      12.53       9.23      22.16
H      12.13       8.93      23.87
H      17.05       2.47      23.77
H      17.47       3.96      22.93
H      13.14       7.49      25.85
H      11.75       6.57      25.24
H       4.09      36.28       6.09
H       6.36      29.24       3.85
H       7.20      30.09       2.55
H       7.62      30.41       4.25
H       2.64      36.85       4.16
H       2.22      35.35       3.32
H       6.54      31.82       6.24
H       7.93      32.73       5.62
H      32.49      14.21      34.96
H      37.40      18.58      31.65
H      37.31      17.13      30.65
H      35.88      17.68      31.56
H      32.85      12.08      33.24
H      33.49      12.59      31.67
H      37.17      16.22      35.62
H      36.39      17.65      34.94
H      26.43      25.09      15.35
H      21.52      20.71      12.06
H      21.65      22.14      11.04
H      23.05      21.60      11.99
H      26.07      27.22      13.63
H      25.43      26.72      12.06
H      21.75      23.08      16.00
H      22.53      21.65      15.32
C       0.81       1.25      39.20
C       0.82       2.22       1.01
C      38.23       0.98       2.24
C      38.22      39.19       1.25
C      37.33      38.10       1.43
C      36.47      38.01       2.55
C      36.49      39.04       3.50
C      37.37       0.89       3.36
C       1.73       3.30       0.95
C       2.63       3.43      39.13
C       2.63       2.49      38.08
C       1.72       1.42      38.12
C       0.81      38.06       0.10
C       0.82      37.08      38.30
C      38.24      38.33      37.06
C      38.22       0.11      38.05
C      37.37      38.41      35.94
C      36.49       0.26      35.79
C      36.47       1.29      36.75
C      37.33       1.20      37.87
C       1.72      37.89       1.19
C       2.63      36.81       1.22
C       2.64      35.88       0.18
C       1.73      36.00      38.35
C      39.13       0.04       0.04
C      39.14      37.16      37.13
C      39.14       2.14       2.17
C      18.88      38.06      19.59
C      18.87      37.08      20.62
C      20.68      38.33      21.86
C      20.70       0.11      20.87
C      21.59       1.20      21.05
C      22.45       1.29      22.17
C      22.42       0.26      23.12
C      21.54      38.41      22.98
C      17.96      36.00      20.57
C      17.05      35.88      19.51
C      17.05      36.81      18.46
C      17.97      37.89      18.50
C      18.88       1.25      19.72
C      18.87       2.22      18.68
C      20.68       0.98      17.45
C      20.70      39.19      18.44
C      21.55       0.89      16.33
C      22.43      39.04      16.18
C      22.45      38.01      17.14
C      21.59      38.10      18.26
C      17.97       1.42      20.80
C      17.05       2.49      20.84
C      17.05       3.43      19.79
C      17.96       3.30      18.73
C      19.79       0.04      19.65
C      19.78       2.14      17.52
C      19.77      37.16      21.79
C       8.63      30.56       9.74
C       7.59      30.51      10.71
C       8.81      28.70      11.98
C       9.88      28.74      11.05
C      11.00      27.89      11.29
C      11.07      27.03      12.41
C       9.96      26.98      13.28
C       8.85      27.81      13.08
C       6.49      31.38      10.60
C       6.40      32.31       9.55
C       7.42      32.37       8.58
C       8.51      31.49       8.67
C      11.05      30.56       9.95
C      12.09      30.51       8.98
C      10.88      28.70       7.71
C       9.81      28.74       8.63
C      10.83      27.81       6.61
C       9.72      26.98       6.41
C       8.62      27.03       7.28
C       8.69      27.89       8.40
C      11.17      31.49      11.02
C      12.27      32.37      11.11
C      13.28      32.31      10.14
C      13.20      31.38       9.09
C       9.84      29.65       9.84
C      12.07      29.57       7.84
C       7.62      29.57      11.85
C      11.05       8.75      29.36
C      12.09       8.79      30.32
C      10.88      10.61      31.60
C       9.80      10.57      30.67
C       8.69      11.42      30.90
C       8.62      12.28      32.02
C       9.72      12.33      32.90
C      10.83      11.50      32.69
C      13.20       7.92      30.22
C      13.28       7.00      29.17
C      12.27       6.94      28.19
C      11.17       7.82      28.29
C       8.63       8.75      29.56
C       7.59       8.79      28.59
C       8.81      10.61      27.32
C       9.88      10.57      28.25
C       8.86      11.50      26.22
C       9.97      12.33      26.02
C      11.07      12.28      26.89
C      11.00      11.42      28.01
C       8.51       7.82      30.63
C       7.41       6.94      30.72
C       6.40       7.00      29.75
C       6.49       7.92      28.70
C       9.84       9.66      29.46
C       7.62       9.74      27.45
C      12.07       9.74      31.47
C      30.67       8.95      29.58
C      31.70       8.97      28.61
C      30.49      10.76      27.30
C      29.43      10.77      28.25
C      28.35      11.67      28.04
C      28.31      12.55      26.93
C      29.37      12.52      26.01
C      30.44      11.63      26.19
C      32.82       8.12      28.75
C      32.93       7.25      29.84
C      31.92       7.21      30.82
C      30.80       8.05      30.68
C      28.25       8.95      29.34
C      27.21       8.97      30.31
C      28.43      10.76      31.62
C      29.49      10.77      30.67
C      28.47      11.63      32.73
C      29.55      12.52      32.91
C      30.61      12.55      31.98
C      30.57      11.67      30.88
C      28.12       8.05      28.24
C      27.00       7.21      28.10
C      25.99       7.25      29.08
C      26.09       8.12      30.17
C      29.46       9.86      29.46
C      27.25       9.87      31.49
C      31.66       9.87      27.43
C      28.25      30.35       9.97
C      27.21      30.33       9.00
C      28.43      28.54       7.68
C      29.49      28.54       8.63
C      30.57      27.64       8.42
C      30.60      26.76       7.32
C      29.54      26.78       6.40
C      28.47      27.67       6.57
C      26.09      31.18       9.14
C      25.99      32.06      10.23
C      27.00      32.10      11.20
C      28.12      31.25      11.07
C      30.67      30.35       9.72
C      31.70      30.33      10.69
C      30.49      28.54      12.00
C      29.43      28.54      11.06
C      30.45      27.67      13.12
C      29.37      26.78      13.29
C      28.31      26.76      12.37
C      28.35      27.64      11.26
C      30.80      31.25       8.62
C      31.92      32.10       8.49
C      32.93      32.06       9.46
C      32.83      31.18      10.55
C      29.46      29.45       9.84
C      31.67      29.43      11.87
C      27.25      29.43       7.82
C      20.70      20.86      19.51
C      20.65      21.93      20.45
C      18.82      20.76      21.74
C      18.88      19.65      20.86
C      18.04      18.53      21.14
C      17.17      18.50      22.25
C      17.08      19.66      23.06
C      17.91      20.76      22.82
C      21.51      23.04      20.30
C      22.40      23.12      19.22
C      22.44      22.10      18.26
C      21.60      20.97      18.41
C      20.70      18.44      19.79
C      20.65      17.38      18.85
C      18.82      18.54      17.56
C      18.88      19.65      18.44
C      17.91      18.54      16.48
C      17.08      19.64      16.24
C      17.17      20.80      17.05
C      18.04      20.77      18.16
C      21.60      18.33      20.89
C      22.44      17.20      21.04
C      22.40      16.18      20.08
C      21.51      16.26      19.00
C      19.79      19.65      19.65
C      19.70      17.36      17.71
C      19.70      21.94      21.59
C      38.22      18.44      39.13
C      38.27      17.38       0.84
C       0.86      18.54       2.13
C       0.81      19.65       1.25
C       1.65      20.77       1.53
C       2.52      20.80       2.64
C       2.61      19.64       3.45
C       1.78      18.54       3.21
C      37.41      16.26       0.69
C      36.52      16.18      38.84
C      36.48      17.20      37.88
C      37.32      18.33      38.03
C      38.22      20.86       0.18
C      38.27      21.93      38.47
C       0.86      20.76      37.18
C       0.81      19.65      38.06
C       1.78      20.76      36.10
C       2.61      19.66      35.86
C       2.52      18.50      36.67
C       1.65      18.53      37.78
C      37.32      20.97       1.27
C      36.48      22.10       1.43
C      36.52      23.12       0.47
C      37.41      23.04      38.62
C      39.12      19.65       0.04
C      39.21      21.94      37.33
C      39.21      17.36       1.97
C      33.21      33.31       5.23
C      34.79      35.12       5.18
C      35.09      34.85       3.83
C      33.48      33.05       3.86
C      32.84      32.07       3.14
C      32.22      29.84       3.41
C      36.09      35.63       3.07
C      32.30      32.47       6.06
C      25.70       6.00      24.85
C      24.13       4.18      24.79
C      23.83       4.46      23.45
C      25.42       6.26      23.48
C      26.06       7.25      22.76
C      26.74       9.46      23.06
C      22.83       3.67      22.69
C      26.61       6.84      25.68
C      15.87      23.70      14.99
C      13.84      24.91      15.42
C      14.00      25.64      14.23
C      16.06      24.44      13.79
C      17.10      24.32      12.86
C      17.98      22.39      11.94
C      13.05      26.68      13.79
C      16.79      22.63      15.47
C       3.81      15.60      34.61
C       5.85      14.40      35.03
C       5.68      13.66      33.84
C       3.62      14.85      33.41
C       2.57      14.96      32.50
C       1.72      16.89      31.55
C       6.63      12.62      33.40
C       2.89      16.67      35.09
C      25.71      33.31      14.45
C      24.12      35.12      14.51
C      23.82      34.85      15.86
C      25.43      33.05      15.83
C      26.08      32.07      16.55
C      26.70      29.84      16.28
C      22.82      35.63      16.62
C      26.62      32.47      13.63
C      33.22       6.00      34.07
C      34.79       4.18      34.12
C      35.09       4.46      35.47
C      33.50       6.26      35.44
C      32.86       7.25      36.16
C      32.18       9.46      35.86
C      36.09       3.67      36.23
C      32.30       6.84      33.24
C       3.81      23.70       4.70
C       5.84      24.91       4.27
C       5.69      25.64       5.46
C       3.63      24.44       5.90
C       2.59      24.32       6.82
C       1.70      22.39       7.75
C       6.64      26.68       5.90
C       2.89      22.63       4.21
C      15.88      15.60      24.31
C      13.84      14.40      23.89
C      14.00      13.66      25.07
C      16.07      14.85      25.51
C      17.11      14.96      26.42
C      17.97      16.89      27.37
C      13.05      12.62      25.51
C      16.80      16.67      23.82
C       6.04       5.62      33.86
C       4.50       3.78      33.77
C       4.10       4.02      35.10
C       5.66       5.86      35.21
C       6.21       6.87      35.98
C       6.75       9.12      35.75
C       3.04       3.26      35.78
C       7.00       6.49      33.12
C      13.65      33.68      14.25
C      15.18      35.53      14.16
C      15.59      35.28      15.48
C      14.03      33.44      15.60
C      13.49      32.43      16.37
C      12.88      30.20      16.13
C      16.65      36.05      16.16
C      12.70      32.81      13.51
C      23.55      15.82      24.28
C      25.56      14.50      24.41
C      25.15      13.96      25.64
C      23.14      15.29      25.54
C      21.96      15.57      26.19
C      21.95      17.58      27.34
C      25.95      12.94      26.35
C      22.71      16.72      23.45
C      35.36      23.49       4.66
C      33.36      24.81       4.79
C      33.77      25.34       6.03
C      35.77      24.02       5.92
C      36.95      23.73       6.58
C      36.95      21.70       7.70
C      32.96      26.37       6.73
C      36.21      22.58       3.83
C      13.64       5.62      25.05
C      15.18       3.78      25.15
C      15.59       4.02      23.82
C      14.02       5.86      23.71
C      13.48       6.87      22.93
C      12.94       9.12      23.16
C      16.65       3.26      23.14
C      12.69       6.49      25.80
C       6.04      33.68       5.44
C       4.51      35.53       5.53
C       4.10      35.28       4.21
C       5.65      33.44       4.09
C       6.19      32.43       3.32
C       6.80      30.20       3.56
C       3.03      36.05       3.52
C       6.99      32.81       6.18
C      35.37      15.81      34.64
C      33.36      14.50      34.51
C      33.77      13.96      33.27
C      35.77      15.29      33.38
C      36.96      15.57      32.73
C      36.97      17.58      31.58
C      32.97      12.94      32.57
C      36.21      16.72      35.47
C      23.55      23.49      15.02
C      25.56      24.81      14.90
C      25.15      25.34      13.66
C      23.15      24.02      13.77
C      21.97      23.73      13.11
C      21.96      21.70      11.98
C      25.96      26.37      12.96
C      22.71      22.58      15.85
N      35.54       2.33      36.54
N       3.57      36.62       2.26
N      35.54      36.97       2.75
N       3.57       2.68      37.04
N      23.38      36.97      16.93
N      16.12       2.68      21.88
N      23.38       2.33      22.37
N      16.12      36.62      17.42
N       7.50      26.19       7.00
N      12.41      33.32      12.14
N      12.18      26.19      12.68
N       7.28      33.32       7.55
N      12.19      13.11      26.62
N       7.28       5.98      31.75
N       7.50      13.11      32.30
N      12.41       5.98      27.17
N      31.64      13.49      32.20
N      26.83       6.28      27.04
N      27.28      13.49      26.72
N      32.08       6.28      31.88
N      27.28      25.82      12.59
N      32.08      33.02       7.43
N      31.64      25.82       7.10
N      26.84      33.02      12.26
N      16.37      21.93      16.72
N      23.32      17.03      22.13
N      16.37      17.37      22.58
N      23.32      22.27      17.17
N       3.32      17.37      36.34
N      35.59      22.27       2.52
N       3.32      21.93       2.97
N      35.60      17.03      36.79
N      33.89      34.34       5.82
N      34.42      33.83       3.24
N      25.03       4.96      25.43
N      24.49       5.48      22.85
N      14.77      23.97      15.74
N      15.10      25.36      13.48
N       4.92      15.33      35.35
N       4.58      13.93      33.10
N      25.03      34.34      13.87
N      24.50      33.83      16.45
N      33.88       4.96      33.48
N      34.42       5.48      36.06
N       4.92      23.97       3.95
N       4.59      25.36       6.21
N      14.77      15.33      23.56
N      15.11      13.93      25.82
N       5.44       4.59      33.21
N       4.70       5.05      35.75
N      14.25      34.72      13.60
N      14.99      34.25      16.13
N      24.74      15.38      23.78
N      23.96      14.38      26.15
N      34.17      23.92       4.16
N      34.95      24.92       6.53
N      14.25       4.59      25.70
N      14.98       5.05      23.17
N       5.44      34.72       6.09
N       4.70      34.25       3.55
N      34.18      15.38      35.14
N      34.96      14.38      32.77
N      24.74      23.92      15.52
N      23.96      24.92      13.16
O      32.59      32.33       1.97
O      33.27      30.83       3.38
O      26.26       7.03      21.57
O      25.66       8.50      23.03
O      17.49      25.35      12.32
O      18.04      23.38      12.99
O       2.14      13.93      32.01
O       1.65      15.92      32.61
O      26.33      32.33      17.72
O      25.65      30.83      16.30
O      32.65       7.03      37.35
O      33.26       8.50      35.89
O       2.19      25.34       7.37
O       1.65      23.38       6.70
O      17.55      13.93      26.91
O      18.04      15.92      26.31
O       6.36       6.62      37.17
O       5.74       8.09      35.70
O      13.38      32.65      17.57
O      13.92      31.20      16.07
O      21.09      14.71      26.07
O      21.50      16.82      26.20
O      37.83      24.58       6.47
O      37.42      22.48       6.58
O      13.33       6.62      21.74
O      13.94       8.09      23.22
O       6.31      32.65       2.11
O       5.77      31.20       3.62
O      37.83      14.71      32.85
O      37.41      16.82      32.72
O      21.09      24.58      13.22
O      21.50      22.48      13.10
