440

C       6.80       8.36      67.12
C       6.01       7.23      67.12
C       5.72       6.89      65.80
C       6.98       8.76      65.79
C       7.70       9.93      65.38
C       7.79      10.37      64.04
C       7.57      10.48      61.81
C       0.17      11.64      62.23
C       0.33      11.56      63.60
C       7.28      10.14      60.46
C       6.70       8.90      60.06
C       5.72       6.87      60.05
C       6.03       7.21      58.73
C       6.61       8.46      58.73
C       5.07       5.67      60.45
C       4.80       5.32      61.80
C       4.73       5.37      64.04
C       4.02       4.24      63.61
C       4.08       4.20      62.23
C       4.94       5.76      65.39
C       4.32       4.97      66.40
C       4.96       3.81      66.91
C       4.27       2.94      67.78
C       2.94       3.20      68.16
C       2.31       4.36      67.65
C       2.99       5.24      66.79
C       4.72       4.73      59.44
C       5.57       3.62      59.18
C       5.32       2.77      58.09
C       4.22       2.99      57.23
C       3.38       4.09      57.49
C       3.62       4.94      58.59
C       7.62      11.07      59.44
C       6.62      11.87      58.85
C       6.94      12.71      57.77
C       0.19      12.77      57.25
C       1.20      11.98      57.86
C       0.89      11.13      58.94
C       0.32      10.70      66.37
C       7.77      11.84      66.95
C       1.67      10.42      66.69
C       2.39      11.27      67.55
C       1.80      12.41      68.12
C       0.44      12.69      67.81
C       6.75      22.66      39.38
C       5.95      23.79      39.37
C       5.67      24.14      40.69
C       6.95      22.27      40.71
C       7.67      21.12      41.12
C       7.78      20.68      42.47
C       7.57      20.58      44.70
C       0.18      19.43      44.28
C       0.33      19.50      42.91
C       7.26      20.93      46.04
C       6.67      22.16      46.45
C       5.68      24.18      46.44
C       5.97      23.84      47.77
C       6.55      22.59      47.77
C       5.04      25.39      46.04
C       4.77      25.73      44.69
C       4.69      25.67      42.45
C       4.00      26.80      42.87
C       4.06      26.85      44.25
C       4.90      25.27      41.10
C       4.27      26.06      40.09
C       4.91      27.21      39.58
C       4.23      28.08      38.71
C       2.88      27.83      38.33
C       2.25      26.67      38.84
C       2.94      25.80      39.71
C       4.70      26.34      47.05
C       5.58      27.41      47.32
C       5.34      28.27      48.41
C       4.22      28.08      49.26
C       3.35      27.00      48.98
C       3.58      26.15      47.89
C       7.61      20.00      47.07
C       6.61      19.17      47.63
C       6.92      18.33      48.72
C       0.17      18.29      49.26
C       1.16      19.12      48.69
C       0.86      19.97      47.61
C       0.30      20.34      40.13
C       7.76      19.19      39.57
C       1.65      20.63      39.81
C       2.38      19.79      38.95
C       1.79      18.63      38.38
C       0.44      18.35      38.70
C       2.10      22.67       3.77
C       2.90      23.80       3.77
C       3.18      24.14       5.09
C       1.91      22.27       5.10
C       1.19      21.11       5.51
C       1.09      20.67       6.86
C       1.30      20.57       9.09
C       0.63      19.42       8.67
C       0.47      19.50       7.30
C       1.60      20.91      10.43
C       2.20      22.14      10.84
C       3.18      24.17      10.84
C       2.88      23.83      12.16
C       2.30      22.58      12.16
C       3.83      25.37      10.44
C       4.10      25.72       9.09
C       4.17      25.66       6.85
C       4.89      26.79       7.28
C       4.83      26.83       8.66
C       3.96      25.27       5.50
C       4.58      26.06       4.49
C       3.98      27.27       4.05
C       4.66      28.13       3.17
C       5.97      27.81       2.71
C       6.55      26.60       3.14
C       5.87      25.74       4.02
C       4.18      26.31      11.45
C       3.33      27.42      11.71
C       3.58      28.28      12.79
C       4.68      28.05      13.66
C       5.52      26.95      13.40
C       5.29      26.10      12.30
C       1.25      19.98      11.45
C       2.25      19.17      12.04
C       1.94      18.32      13.12
C       0.63      18.28      13.65
C       7.69      19.09      13.05
C       7.99      19.93      11.97
C       0.52      20.34       4.52
C       1.07      19.13       4.03
C       7.27      20.70       4.09
C       6.54      19.87       3.22
C       7.08      18.65       2.75
C       0.34      18.30       3.16
C       2.14       8.38      31.51
C       2.94       7.25      31.52
C       3.22       6.91      30.20
C       1.94       8.77      30.19
C       1.21       9.92      29.77
C       1.10      10.36      28.42
C       1.31      10.45      26.19
C       0.63      11.60      26.61
C       0.48      11.53      27.98
C       1.62      10.11      24.85
C       2.22       8.88      24.44
C       3.21       6.86      24.45
C       2.92       7.20      23.12
C       2.34       8.45      23.12
C       3.86       5.66      24.85
C       4.13       5.32      26.20
C       4.21       5.38      28.44
C       4.92       4.25      28.02
C       4.86       4.20      26.64
C       4.00       5.78      29.79
C       4.62       4.98      30.80
C       4.02       3.78      31.24
C       4.71       2.91      32.12
C       6.01       3.23      32.57
C       6.59       4.44      32.15
C       5.91       5.31      31.28
C       4.19       4.71      23.84
C       3.32       3.63      23.57
C       3.55       2.77      22.48
C       4.67       2.97      21.64
C       5.54       4.04      21.91
C       5.32       4.90      23.00
C       1.27      11.04      23.82
C       2.27      11.87      23.26
C       1.96      12.71      22.18
C       0.66      12.74      21.63
C       7.72      11.91      22.20
C       8.02      11.06      23.28
C       0.53      10.70      30.76
C       1.08      11.91      31.25
C       7.29      10.33      31.19
C       6.56      11.16      32.07
C       7.09      12.38      32.53
C       0.34      12.74      32.12
C       0.67      16.62      53.20
C       0.66      15.75      54.31
C       1.31      14.50      54.25
C       1.95      14.13      53.05
C       1.98      14.98      51.92
C       1.33      16.24      52.00
C       1.36      13.65      55.35
C       1.41      17.17      50.98
C       4.66       1.27      53.46
C       4.69       0.73      52.16
C       4.11      30.57      51.90
C       3.52      29.87      52.99
C       3.48      30.41      54.30
C       4.10       0.56      54.54
C       4.25      30.02      50.63
C       4.27       1.07      55.82
C       0.15      14.43      17.70
C       0.17      15.29      16.59
C       7.57      16.55      16.64
C       6.93      16.92      17.85
C       6.91      16.07      18.98
C       7.55      14.80      18.89
C       7.52      17.40      15.55
C       7.48      13.88      19.92
C       4.23      29.77      17.43
C       4.20      30.32      18.73
C       4.78       0.47      18.99
C       5.37       1.17      17.90
C       5.41       0.64      16.59
C       4.79      30.49      16.35
C       4.63       1.02      20.26
C       4.62      29.97      15.06
C       4.40      14.11      70.96
C       5.42      14.71       0.50
C       5.40      16.11       0.70
C       4.35      16.85       0.10
C       3.32      16.26      70.55
C       3.34      14.84      70.37
C       6.40      16.71       1.48
C       2.33      14.15      69.70
C       4.40      16.94      35.55
C       5.41      16.31      34.79
C       5.39      14.91      34.58
C       4.35      14.17      35.18
C       3.33      14.79      35.96
C       3.35      16.21      36.14
C       6.40      14.32      33.80
C       2.34      16.89      36.81
C       0.38      29.65      35.50
C       7.46      30.33      34.76
C       7.58       0.60      34.58
C       0.60       1.29      35.20
C       1.59       0.62      35.96
C       1.46      30.34      36.11
C       6.60       1.25      33.83
C       2.44      29.60      36.77
C       0.44       1.40      71.00
C       7.53       0.69       0.52
C       7.53      30.43       0.69
C       0.55      29.73       0.07
C       1.52      30.43      70.54
C       1.51       0.71      70.39
C       6.55      29.78       1.44
C       2.49       1.44      69.73
H      -0.02      13.52      68.17
H       6.80      12.09      66.70
H       3.38      11.05      67.74
H       2.14       9.62      66.27
H       7.15       8.83      67.96
H       5.72       6.73      67.97
H       6.28       7.87      64.09
H       6.02       7.98      61.75
H       0.77      12.28      64.18
H       0.51      12.41      61.65
H       5.66      11.83      59.18
H       6.19      13.27      57.34
H       1.62      10.55      59.35
H       2.16      11.99      57.52
H       6.94       8.95      57.89
H       5.85       6.66      57.89
H       3.56       3.54      64.19
H       3.64       3.49      61.65
H       6.40       3.46      59.76
H       5.98       2.01      57.90
H       3.01       5.76      58.73
H       2.59       4.30      56.86
H       2.49       6.04      66.40
H       1.33       4.56      67.89
H       4.75       2.09      68.09
H       5.91       3.58      66.61
H      -0.01      17.50      38.35
H       6.80      18.93      39.81
H       3.36      20.01      38.75
H       2.11      21.44      40.23
H       7.10      22.19      38.54
H       5.66      24.28      38.52
H       6.25      23.18      42.41
H       6.03      23.09      44.74
H       0.79      18.79      42.34
H       0.54      18.67      44.87
H       5.65      19.20      47.28
H       6.18      17.75      49.12
H       1.59      20.58      47.23
H       2.11      19.14      49.07
H       6.87      22.11      48.61
H       5.78      24.39      48.61
H       3.53      27.50      42.29
H       3.62      27.57      44.83
H       6.42      27.55      46.76
H       6.02      29.00      48.62
H       2.95      25.35      47.73
H       2.56      26.81      49.60
H       2.44      24.99      40.09
H       1.28      26.47      38.61
H       4.70      28.93      38.39
H       5.86      27.45      39.87
H       0.77      17.43       2.84
H       2.01      18.84       4.33
H       5.59      20.14       2.95
H       6.83      21.55       4.45
H       1.76      22.20       2.93
H       3.19      24.30       2.92
H       2.61      23.18       6.80
H       2.86      23.07       9.14
H       0.00      18.79       6.73
H       0.26      18.66       9.25
H       3.21      19.20      11.69
H       2.68      17.76      13.54
H       7.26      20.53      11.57
H       6.73      19.08      13.40
H       1.97      22.10      13.00
H       3.06      24.38      13.00
H       5.36      27.48       6.70
H       5.27      27.54       9.24
H       2.50      27.57      11.13
H       2.91      29.03      12.99
H       5.89      25.29      12.16
H       6.30      26.74      14.03
H       6.33      24.88       4.34
H       7.49      26.35       2.83
H       4.21      29.00       2.90
H       3.06      27.54       4.40
H       0.77      13.62      32.43
H       2.01      12.21      30.94
H       5.62      10.87      32.34
H       6.86       9.47      30.84
H       1.80       8.86      32.35
H       3.24       6.76      32.37
H       2.64       7.86      28.48
H       2.86       7.96      26.15
H       0.00      12.23      28.54
H       0.26      12.35      26.02
H       3.22      11.85      23.63
H       2.70      13.30      21.79
H       7.29      10.45      23.65
H       6.77      11.89      21.82
H       2.01       8.93      22.28
H       3.11       6.65      22.28
H       5.39       3.56      28.60
H       5.30       3.49      26.06
H       2.48       3.49      24.14
H       2.87       2.04      22.28
H       5.94       5.69      23.15
H       6.33       4.23      21.28
H       6.38       6.16      30.95
H       7.54       4.69      32.46
H       4.25       2.04      32.39
H       3.10       3.50      30.89
H       0.22      17.53      53.28
H       0.20      16.07      55.17
H       2.42      13.22      53.00
H       3.04      13.67      50.76
H       2.63      15.07      49.98
H       2.15      13.05      55.44
H       2.30      17.52      50.74
H       5.11       2.18      53.60
H       5.14       1.26      51.42
H       3.13      28.94      52.82
H       2.51      28.79      55.10
H       2.80      30.00      56.19
H       4.60      30.60      49.89
H       4.66       0.47      56.52
H       0.61      13.51      17.61
H       0.63      14.98      15.73
H       6.46      17.83      17.90
H       5.85      17.37      20.14
H       6.25      15.97      20.92
H       6.73      18.00      15.46
H       6.58      13.51      20.15
H       3.78      28.86      17.29
H       3.75      29.78      19.47
H       5.75       2.10      18.07
H       6.38       2.25      15.79
H       6.09       1.04      14.70
H       4.29       0.45      20.99
H       4.23      30.57      14.37
H       4.44      13.09      70.87
H       6.15      14.13       0.91
H       4.33      17.87       0.23
H       2.38      18.02      70.11
H       1.67      16.70      69.41
H       7.22      16.18       1.69
H       1.39      14.41      69.89
H       4.44      17.96      35.64
H       6.14      16.90      34.37
H       4.33      13.16      35.05
H       2.39      13.02      36.39
H       1.69      14.33      37.10
H       7.21      14.86      33.59
H       1.39      16.63      36.63
H       0.31      28.63      35.57
H       6.71      29.79      34.33
H       0.65       2.31      35.10
H       2.59       2.34      36.44
H       3.25       0.98      37.11
H       5.76       0.76      33.62
H       3.39      29.82      36.59
H       0.37       2.42      70.93
H       6.78       1.24       0.95
H       0.60      28.72       0.17
H       2.52      28.70      70.06
H       3.18      30.06      69.39
H       5.71      30.27       1.64
H       3.44       1.22      69.91
N       6.32       7.84      65.05
N       7.33       9.76      62.92
N       6.15       7.91      60.80
N       5.17       5.98      62.92
N       4.03       2.30      56.11
N       0.39      13.54      56.18
N       2.57      13.20      68.87
N       2.20       2.39      68.91
N       6.29      23.19      41.45
N       7.31      21.29      43.58
N       6.13      23.14      45.69
N       5.13      25.06      43.57
N       4.04      28.78      50.38
N       0.36      17.48      50.30
N       2.57      17.85      37.63
N       2.14      28.65      37.59
N       2.57      23.19       5.85
N       1.56      21.28       7.97
N       2.74      23.13      10.09
N       3.73      25.05       7.97
N       4.87      28.74      14.78
N       0.44      17.51      14.72
N       6.30      17.89       1.97
N       6.71      28.61       1.94
N       2.60       7.85      29.44
N       1.58       9.75      27.31
N       2.76       7.90      25.20
N       3.77       5.98      27.32
N       4.85       2.27      20.52
N       0.47      13.56      20.59
N       6.30      13.13      33.31
N       6.76       2.43      33.34
N       2.61      14.54      50.79
N       2.90      29.66      55.28
N       6.27      16.50      20.11
N       5.99       1.38      15.60
N       2.36      17.06      69.99
N       2.38      13.99      36.51
N       2.57       1.37      36.54
N       2.50      29.67      69.96
