126

V       0.53      11.76       9.21
V       4.00      12.07       9.16
V       4.74       6.32      18.34
V       1.26      17.51       0.03
H       5.01      18.10       7.90
H       6.51      11.40       5.46
H       0.13      10.30       3.38
H       0.28      11.58       1.27
H       6.81      13.97       1.24
H       5.67      18.20       3.70
H       5.13      19.34       5.77
H       1.00      14.53      12.43
H       4.06      15.85      11.08
H       3.06      17.87      12.03
H       3.15      19.76      13.58
H       4.31      21.00      15.33
H       1.28      19.79      16.64
H       2.26      17.70      15.76
H       0.71       2.73       3.21
H       6.54       4.02       4.97
H       0.62       7.97       7.41
H       4.47       9.21       5.95
H       5.58       7.93       4.18
H       5.62       6.04       2.64
H       0.61       6.15      10.53
H       3.39      12.37      12.88
H       4.23      13.38      14.91
H       4.35      12.08      17.01
H       3.66       9.76      17.07
H       1.02       4.70      12.44
H       1.39       8.42      10.51
H       3.38       5.38      15.12
C       2.49       9.90       7.69
C       2.48      10.58      11.30
C       5.92      13.91      10.71
C       5.94      13.28       7.08
C       6.58      12.02       4.57
C       6.89      11.37       3.38
C       6.98      12.09       2.20
C       6.74      13.46       2.19
C       6.43      14.15       3.39
C       6.34      13.41       4.61
C       6.18      15.54       3.38
C       5.85      16.20       4.59
C       5.77      15.48       5.82
C       6.02      14.07       5.82
C       5.61      17.60       4.60
C       5.31      18.27       5.78
C       5.24      17.57       6.98
C       5.48      16.20       7.01
C       0.18      15.24      12.48
C       5.99      15.06      11.64
C       4.92      15.97      11.72
C       4.98      17.06      12.60
C       6.10      17.24      13.44
C       0.24      16.32      13.38
C       3.93      17.99      12.66
C       3.98      19.06      13.55
C       5.09      19.24      14.39
C       6.16      18.33      14.33
C       0.35      18.52      15.16
C       1.39      17.58      15.12
C       1.34      16.49      14.24
C       5.15      20.33      15.27
C       6.29      20.57      16.06
C       0.41      19.64      16.02
C       3.72       4.14       2.39
C       2.64       3.22       2.37
C       1.54       3.43       3.22
C       1.52       4.52       4.11
C       2.60       5.43       4.13
C       3.70       5.24       3.27
C       0.43       4.71       4.98
C       0.41       5.79       5.86
C       1.48       6.71       5.89
C       2.58       6.52       5.02
C       3.66       7.43       5.05
C       4.74       7.24       4.18
C       4.76       6.16       3.30
C       1.46       7.82       6.76
C       2.54       8.72       6.79
C       3.64       8.52       5.94
C       3.46      11.74      13.76
C       3.93      12.34      14.92
C       4.00      11.61      16.10
C       3.60      10.27      16.12
C       3.14       9.63      14.94
C       3.06      10.38      13.74
C       2.75       8.26      14.96
C       2.27       7.64      13.75
C       2.10       8.44      12.58
C       2.54       9.79      12.56
C       1.95       6.24      13.65
C       1.29       5.75      12.52
C       1.07       6.56      11.42
C       1.51       7.87      11.43
C       2.80       7.52      16.25
C       2.69       2.02       1.49
C       6.25      16.31       2.11
C       6.36      21.79      16.91
C       2.45       5.22      14.60
O       3.59      10.96      10.77
O       1.33      10.31       8.08
O       0.12      12.87       7.60
O       1.31      10.80      10.79
O       0.10      13.37      10.33
O       3.61      10.47       8.04
O       2.43      12.76       9.03
O       4.75      13.52      10.29
O       4.77      13.03       7.58
O       5.91      11.07       9.34
O       1.57       1.45       1.14
O       3.97       7.28      16.77
O       5.25      22.38      17.23
O       3.86       1.61       1.11
O       5.13      16.71       1.59
O       1.68       7.13      16.78
O       2.83      16.83       0.15
O       0.49      16.55       1.61
O       0.60      22.22      17.27
O       6.30       7.01      18.22
O       1.94      21.83      14.75
F       2.37      15.61      14.23
F       4.78       3.97       1.56
F       6.28       5.94       6.69
F       5.43      15.60       8.23
