33

O       4.89       4.48       4.04
O       3.15       4.00       2.66
H       4.59       7.05       4.18
H       5.64       9.34       0.68
O       5.55      10.89       2.59
H       5.18       7.32      -0.74
O       4.93       3.78       0.27
O      11.07       8.24       6.73
O      10.14       9.79       8.07
O       4.12       9.86       4.40
O      11.42       9.99       4.33
O      10.41       8.48       2.95
H       5.57       9.29       6.32
H       7.63       9.11       7.74
H       8.07       9.57       2.82
O       3.75       5.15      -1.08
C       4.11       4.70       3.02
C       4.48       5.98       2.31
C       4.71       7.12       3.10
C       5.09       8.32       2.50
C       5.30       8.40       1.12
C       5.05       7.28       0.34
C       4.63       6.07       0.91
C       4.43       4.89       0.00
C      10.45       9.30       3.97
C       9.12       9.34       4.68
C       7.97       9.48       3.90
C       6.71       9.50       4.50
C       6.56       9.32       5.88
C       7.71       9.22       6.66
C       8.99       9.24       6.08
C      10.17       9.06       6.99
S       5.27       9.77       3.50
