20

H       3.24       1.23       2.63
H       3.75       0.39       0.36
H       8.86      -1.23      -2.63
H       8.35      -0.39      -0.36
C       7.84      -1.08      -2.31
C       7.54      -0.62      -1.04
C       6.17      -0.43      -0.61
C       5.19      -0.32      -1.77
C       5.69      -1.30      -2.63
C       5.25      -1.75      -0.65
C       4.85      -2.24      -1.82
N       5.24       1.46       3.21
C       4.26       1.08       2.31
C       4.56       0.62       1.04
C       5.93       0.43       0.61
C       6.91       0.32       1.77
C       6.41       1.30       2.63
C       6.85       1.75       0.65
C       7.25       2.24       1.82
N       6.86      -1.46      -3.21
