184

Al       1.76      17.13       7.93
Al       5.08      17.06       7.93
Al       1.92       0.02      23.81
Al       5.27      17.10      23.86
H       6.70       0.54       9.55
H       6.43      13.66       1.32
H       0.03       8.56       1.07
H       0.11       9.92       5.10
H       0.32       3.47       1.31
H       6.67       7.23       5.11
H       1.92       5.58       4.33
H       1.94       3.70       5.96
H       2.00      12.87       2.82
H       2.06      14.67       4.55
H       4.82      11.57       4.31
H       4.84      13.44       5.96
H       4.78       4.23       2.81
H       4.76       2.39       4.50
H       6.85       0.59      22.22
H       6.72      13.69      30.44
H       0.32       8.59      30.68
H       0.34       9.93      26.65
H       2.27      12.90      28.91
H       2.31      14.70      27.19
H       0.60       3.49      30.43
H       6.89       7.24      26.65
H       2.17       5.59      27.42
H       2.15       3.71      25.78
H       5.03       4.26      28.97
H       4.97       2.44      27.27
H       5.08      11.60      27.46
H       5.08      13.48      25.82
H       3.40       0.57       6.32
H       3.56       0.65      25.43
H       3.71      13.67      14.55
H       3.46       8.55      14.79
H       3.28       9.95      10.78
H       5.29      11.55      11.59
H       5.31      13.41       9.92
H       3.81      13.67      17.24
H       3.58       8.60      16.99
H       3.66       9.89      21.03
H       1.69      12.91      18.78
H       1.70      14.74      20.49
H       3.30       3.48      17.22
H       3.76       7.20      21.00
H       5.52       4.19      18.69
H       5.50       2.36      20.37
H       3.21       3.47      14.54
H       3.38       7.26      10.75
H       1.55       5.61      11.52
H       1.51       3.73       9.88
H       1.76       5.62      20.23
H       1.72       3.74      21.87
H       5.34       4.22      13.01
H       5.32       2.38      11.33
H       1.49      12.92      13.06
H       1.48      14.73      11.34
H       5.51      11.55      20.23
H       5.54      13.42      21.89
C       0.04      11.43       1.06
C       6.54      12.82       0.66
C       0.06       9.70       2.88
C       0.07       9.26       4.24
C       0.06      11.03       2.42
C       0.09      12.10       3.45
C       0.13      14.16       5.36
C       0.12      15.29       6.33
C       0.04       5.71       1.07
C       0.19       4.32       0.65
C       6.68       7.43       2.88
C       6.69       7.88       4.25
C       6.68       6.10       2.42
C       6.67       5.03       3.45
C       1.09       4.88       4.36
C       1.10       3.83       5.28
C       6.67       2.93       5.33
C       6.69       1.79       6.29
C       1.18      12.98       3.52
C       1.21      13.99       4.48
C       5.67      12.25       4.36
C       5.68      13.29       5.29
C       5.60       4.12       3.51
C       5.59       3.09       4.45
C       0.33      11.45      30.69
C       6.84      12.84      31.10
C       0.33       9.72      28.87
C       0.32       9.28      27.51
C       0.34      11.05      29.33
C       0.35      12.12      28.30
C       1.44      13.01      28.22
C       1.46      14.03      27.26
C       0.37      14.20      26.40
C       0.35      15.33      25.44
C       0.33       5.73      30.69
C       0.48       4.34      31.10
C       6.94       7.46      28.88
C       6.93       7.90      27.51
C       0.30       6.13      29.34
C       6.92       5.05      28.31
C       6.89       2.96      26.42
C       6.88       1.83      25.45
C       1.33       4.90      27.39
C       1.32       3.85      26.47
C       5.84       4.15      28.26
C       5.81       3.13      27.31
C       5.93      12.28      27.40
C       5.92      13.33      26.48
C       3.46      11.43      14.82
C       3.62      12.82      15.22
C       3.38       9.71      13.00
C       3.33       9.28      11.63
C       3.40      11.04      13.47
C       3.38      12.11      12.43
C       4.45      12.24      11.53
C       4.47      13.28      10.60
C       3.39      14.18      10.53
C       3.43      15.30       9.54
C       3.55      11.43      17.00
C       3.67      12.83      16.58
C       3.62       9.70      18.81
C       3.67       9.24      20.16
C       3.59      11.03      18.36
C       3.60      12.11      19.39
C       2.53      13.02      19.47
C       2.53      14.04      20.41
C       3.62      14.19      21.28
C       3.65      15.32      22.26
C       3.57       5.71      16.96
C       3.40       4.32      16.55
C       3.65       7.44      18.78
C       3.70       7.87      20.15
C       3.63       6.11      18.31
C       3.64       5.03      19.34
C       4.69       4.10      19.39
C       4.69       3.07      20.33
C       3.61       2.94      21.22
C       3.57       1.80      22.19
C       3.49       5.71      14.78
C       3.35       4.32      15.19
C       3.42       7.44      12.97
C       3.37       7.90      11.61
C       3.45       6.11      13.42
C       3.44       5.04      12.39
C       2.38       4.90      11.48
C       2.35       3.86      10.56
C       3.41       2.94      10.50
C       3.37       1.79       9.55
C       2.58       4.91      20.26
C       2.56       3.86      21.18
C       4.51       4.12      12.32
C       4.50       3.09      11.38
C       2.31      13.02      12.36
C       2.31      14.04      11.41
C       4.67      12.24      20.29
C       4.70      13.28      21.22
N       0.40      10.61      31.78
N       0.04       8.56       2.09
N       6.91       6.56      31.79
N       0.31       8.59      29.66
N       3.44      10.60      15.91
N       3.42       8.57      13.77
N       3.62       8.58      18.01
N       3.60       6.55      15.86
O       6.71       0.01       8.74
O       1.19       1.34       6.63
O       1.25      15.73       6.72
O       5.56       1.34       6.68
O       4.48       1.21       9.29
O       3.39       0.00       7.11
O       5.63      15.73       6.69
O       4.57      15.61       9.07
O       0.24       0.02      23.01
O       1.37       1.35      25.12
O       2.42       1.49      22.65
O       3.57       0.07      24.65
O       1.47      15.73      24.98
O       2.55      15.93      22.47
O       5.74       1.42      25.06
O       5.86      15.82      25.16
O       2.22       1.48       9.09
O       2.32      15.87       9.27
O       4.67       1.21      22.46
O       4.77      15.60      22.79
