38

H       1.31       4.91       8.72
H       6.36       2.46      12.63
H       8.06       0.83      13.34
H       7.43      -1.05      14.83
H       5.09      -1.29      15.60
H       3.39       0.38      14.96
H       3.19       3.58       9.48
H       4.27       2.35      11.27
H       1.07       4.38      14.47
H      -3.19       5.27      10.29
H      -0.73       5.15      13.75
H      -2.84       5.70      12.69
C      -1.17       4.60       9.94
C      -1.41       4.08       8.57
C       2.99       3.17      15.67
C       3.57       2.79      11.98
C       2.83       3.20      14.23
C      -2.22       5.08      10.73
C      -2.02       5.34      12.08
C       0.29       4.59      11.89
C      -0.79       5.04      12.68
C       4.76       1.58      13.79
C       6.08       1.67      13.31
C       7.04       0.74      13.70
C       6.69      -0.32      14.54
C       5.37      -0.45      14.98
C       4.41       0.50      14.62
C       0.13       4.58      10.50
C       1.51       4.05      12.41
C       2.49       3.55      11.52
C       2.40       3.85      10.17
C       1.29       4.50       9.70
C       1.73       3.92      13.76
C       3.72       2.56      13.34
O      -2.62       3.95       8.10
O      -0.37       3.72       7.88
O       1.93       3.31      16.40
O       4.18       3.09      16.17
