19

C       6.47       3.48       8.58
C       6.39       3.30       9.96
C       6.20       4.43      10.79
C       6.14       5.71      10.25
C       6.21       5.89       8.88
C       6.43       4.76       8.04
C       5.89       4.23      12.20
C       6.96       4.94       6.69
H       6.82       1.39       9.87
H       5.42       7.14       7.66
H       7.51       2.04       7.90
H       5.98       6.56      10.90
O       6.84       6.07       6.15
O       7.76       4.05       6.22
O       5.00       4.94      12.79
O       6.28       3.14      12.66
O       6.43       2.03      10.51
O       6.07       7.17       8.41
O       6.59       2.39       7.74
