29

O       9.29       1.97      18.51
O       8.68       1.52      20.62
O      11.53       1.96      20.48
O      12.96      -1.19      21.37
K      18.84      -0.00      22.38
K      10.85      -0.00      22.38
O       8.63      -2.31      18.71
O       9.17      -1.60      20.76
C       8.76      -2.51      19.98
Cd       8.94       0.14      25.89
Cd       8.94      -0.15      18.87
Cd      14.82      -0.00      22.38
C      16.02      -1.94      24.10
C       9.12      -2.33      25.02
C      11.76      -3.18      24.21
C      13.66       2.07      23.97
C       8.76       2.51      24.79
O      16.71      -1.14      23.40
O       9.29      -1.98      26.26
O       8.68      -1.52      24.15
O      11.53      -1.97      24.28
O      12.96       1.18      23.39
O       8.63       2.30      26.05
O       9.17       1.59      24.00
C      16.02       1.93      20.66
C       9.12       2.32      19.74
C      11.76       3.18      20.56
C      13.66      -2.07      20.79
O      16.71       1.13      21.36
