29

K       4.74      -0.00       7.46
K      12.74      -0.00       7.46
Cd      14.64      -0.14       3.95
C      14.82       2.51       9.87
Cd      14.64       0.14      10.97
Cd       8.76      -0.00       7.46
O       6.88       1.13       6.44
O      14.29       1.97       3.59
O      14.90       1.52       5.70
O      12.05       1.97       5.56
O      10.62      -1.18       6.45
O      14.96      -2.31       3.79
O      14.41      -1.59       5.84
C       7.56       1.93       5.74
C      14.46       2.33       4.82
C      11.82       3.18       5.64
C       9.92      -2.07       5.87
O       6.88      -1.13       8.48
O      14.29      -1.97      11.33
O      14.90      -1.52       9.23
O      12.05      -1.97       9.36
O      10.62       1.18       8.47
O      14.96       2.30      11.13
O      14.41       1.59       9.08
C      14.82      -2.51       5.06
C       7.56      -1.94       9.18
C      14.46      -2.33      10.10
C      11.82      -3.18       9.28
C       9.92       2.07       9.05
