31

O      -0.97       7.36       4.96
O      -1.19       7.92       7.11
O       3.94       9.14       4.03
O       5.55       8.45       5.44
H       2.68       3.56      10.16
H       1.21       7.69      12.51
H       2.25       7.84      10.23
H       0.61       6.24       8.20
H       1.65       8.43       4.63
H       4.76       6.94       7.24
C       2.50       5.70      10.07
C       2.34       4.45      10.68
C       1.75       4.37      11.95
C       1.34       5.55      12.61
C       1.52       6.79      11.97
C       2.09       6.88      10.71
C       1.57       2.99      12.50
C       0.75       5.48      13.98
C       2.73       6.48       7.82
C       1.37       6.64       7.54
C       0.99       7.33       6.38
C       1.95       7.89       5.53
C       3.31       7.78       5.87
C       3.70       7.06       7.00
C      -0.47       7.53       6.12
C       4.35       8.49       5.04
O       3.17       5.69       8.86
O       0.48       2.37      12.30
O       2.57       2.40      13.04
O       0.66       4.31      14.54
O       0.37       6.53      14.58
