31

H       6.61      -2.56      12.08
H       7.42      -6.71       9.47
H       6.36      -6.84      11.74
H       8.22      -5.61      13.74
H       7.06      -7.58      17.40
H       4.08      -5.62      14.96
C       6.43      -4.70      12.02
C       6.80      -3.46      11.50
C       7.43      -3.40      10.25
C       7.64      -4.58       9.51
C       7.26      -5.81      10.06
C       6.67      -5.89      11.32
C       7.87      -2.04       9.79
C       8.19      -4.50       8.13
C       6.11      -5.52      14.24
C       7.44      -5.90      14.44
C       7.78      -6.62      15.60
C       6.79      -7.02      16.51
C       5.45      -6.69      16.25
C       5.12      -5.91      15.13
C       9.23      -6.90      15.86
C       4.35      -7.18      17.13
O       5.72      -4.68      13.21
O       7.02      -1.24       9.28
O       9.07      -1.67      10.02
O       8.49      -3.33       7.66
O       8.32      -5.55       7.42
O       9.70      -6.59      17.01
O       9.95      -7.42      14.95
O       3.17      -6.78      16.89
O       4.65      -8.05      18.03
