18

Sc       4.78       4.59       9.68
Sc       8.49       4.54       9.70
C       6.65       5.93       7.54
O       6.62       3.59       9.76
O       9.24       3.19       8.27
O       4.06       3.18       8.28
H       2.89       6.51       9.55
O       5.52       5.95      11.11
O       7.78       5.96      11.10
H       6.61       2.63       9.83
C       2.93       2.99       7.71
C       6.65       6.14      11.67
C       2.93       3.21      11.85
O       9.24       3.32      11.25
O       4.06       3.45      11.31
O       2.91       5.54       9.62
O       7.78       5.69       8.07
O       5.53       5.82       8.14
