116

Cr       4.49       3.86       9.37
Cr       2.75       6.80       9.39
Cr       1.07       3.82       9.48
Cr      -4.33       9.07      18.68
Cr      -0.99       8.88       0.10
Cr      -2.64       6.10      18.80
H      -0.48       8.58       3.99
H       6.43       4.55       3.34
H       4.38       8.36       3.38
H       1.16       8.04       3.54
H       4.23       8.28       5.76
H      -0.02       4.13      13.29
H      -0.14       4.37      15.68
H       0.65       8.61      15.30
H       0.89       8.33      12.87
H       5.11       1.62      12.89
H       5.15       1.50      15.27
H       0.58       4.09       5.60
H       0.83       1.78      15.39
H       0.78       1.92      12.96
H       5.36       8.61      12.50
H       1.68       7.71       5.73
H       5.66       8.85      14.86
H       6.47       4.61      15.25
H       6.12       4.36      12.85
H       0.08       8.39       6.18
H      -2.42       6.96       4.15
H      -1.95       6.84       6.38
H      -2.14       5.20       3.99
H       0.10       4.30       3.42
H       1.99       5.18       5.47
H       2.38       4.51       3.03
H       2.43       6.14       3.40
H      -1.77       5.06       6.21
H       0.70       1.15       6.11
H       0.58       0.75       3.68
H       4.52       2.46       3.23
H       4.69       2.73       5.59
H       6.25       4.45       5.78
C       4.84       6.20       7.35
C       3.67       2.17       3.84
C       3.78       2.31       5.20
C       0.44       5.96       7.51
C       2.73       1.92       6.04
C       5.85       5.31       5.25
C       5.92       5.35       3.86
C       5.41       6.46       3.17
C       4.78       7.49       3.88
C       4.72       7.46       5.25
C       5.23       6.35       5.95
C       0.60       5.24       3.76
C       0.14       5.11      13.71
C       0.10       5.24      15.08
C       0.23       6.51      15.67
C       2.84       2.27       7.45
C       0.55       7.62      14.87
C       0.65       7.47      13.48
C       0.40       6.22      12.89
C       4.16       1.64      13.41
C       4.19       1.61      14.78
C       3.00       1.64      15.51
C      -0.37       6.42       3.54
C       1.77       1.77      14.84
C       1.74       1.82      13.46
C       2.94       1.79      12.75
C       5.62       7.73      13.08
C       5.03       6.26      11.25
C       5.77       7.86      14.44
C       6.01       6.73      15.24
C       6.23       5.48      14.65
C       6.06       5.35      13.28
C       5.68       6.47      12.51
C       0.12       6.19       6.09
C       2.69       1.00       1.95
C      -0.72       6.55       2.11
C       5.80       6.72       1.79
C       3.02       1.18      16.87
C      -0.34       6.70      17.00
C       0.60       5.98      11.47
C       6.17       6.93      16.65
C       2.97       2.26      11.39
C       0.25       7.74       4.10
C       0.58       7.59       5.59
C      -1.40       6.05       5.84
C      -1.68       6.15       4.33
C       0.89       5.10       5.27
C       1.54       1.41       5.48
C       1.46       1.22       4.10
C       2.54       1.57       3.28
N       1.83       5.40       2.97
O       4.01       2.50       7.88
O      -1.43       5.64       1.60
O       6.74       6.03       1.29
O       5.01       5.07       7.93
O       5.72       8.01      17.10
O       1.94       0.71      17.33
O       4.15       0.92      17.38
O      -0.26       7.84      17.56
O      -1.16       5.81      17.39
O       7.00       6.21      17.30
O      -2.63       8.07      18.80
O       1.45       6.70      10.84
O       4.08       7.08       7.82
O       1.36       6.66       8.02
O       0.08       4.84       7.97
O       1.81       2.69       8.06
O       4.10       2.53      10.92
O       5.10       5.10      10.75
O       4.17       7.12      10.86
O       0.18       4.88      11.02
O       1.90       2.73      10.88
O       2.77       4.83       9.41
O       5.45       7.84       1.31
O       1.69       0.53       1.32
O       3.88       0.75       1.59
O      -0.51       7.66       1.55
