11

C       4.48       7.92      28.68
N       4.56       8.98      27.86
N       5.45       8.31      23.29
Cd       4.82       8.60      25.54
C       5.36       7.13      22.64
C       5.62       9.43      22.58
O       3.59      10.50      25.19
O       4.78       6.32      25.86
C       5.99       6.07      26.22
C       2.41       9.98      25.19
C       4.62      10.22      28.39
