24

Cd       9.22       8.31       8.83
N       8.92       5.90       9.05
N       9.11       7.32       6.71
Cd       5.47       9.00       8.69
O       4.03      10.61       8.16
C       8.80       5.25      10.21
C       9.13       8.04       5.59
C       9.12       5.97       6.65
C       9.03       5.21       7.89
C       5.23       6.17      10.39
N       5.32       6.69       9.16
N       5.58       7.84       6.67
C       8.25      10.90       8.11
C      11.85       8.17      10.05
C       6.74       9.00      11.27
O       7.39      10.01       7.79
O       9.44      10.60       8.45
O       5.64       9.53      10.89
O       7.55       8.40      10.49
C       5.47       5.88       8.08
C       5.65       8.43       5.47
C       5.58       6.49       6.76
O      10.69       8.26      10.56
C       2.84      10.12       8.08
