14

Zn       1.79      -0.09       3.83
Zn       4.86       3.65       3.83
C       2.75      -2.55       2.59
C       3.11       1.90       2.26
C       0.82       2.38       5.07
C       0.47      -2.07       5.41
O       2.24       0.97       2.16
O       3.96       1.97       3.20
O       1.84      -1.66       2.56
O       3.40      -2.83       3.66
O       1.34      -1.14       5.51
O      -0.38      -2.14       4.47
O       1.73       1.49       5.11
O       0.18       2.66       4.01
