88

H       8.02       6.41      11.45
H       8.02       4.32      12.78
H       8.02      -6.41      19.50
H       8.02      -4.32      18.17
H       8.02       4.02      21.89
H       8.02       2.69      19.80
H       8.02      -4.02       9.06
H       8.02      -2.69      11.15
H      12.34      -6.41      19.50
H      12.34      -4.32      18.16
H      12.34       6.41      11.45
H      12.34       4.32      12.79
H      12.34      -4.02       9.07
H      12.34      -2.69      11.16
H      12.34       4.02      21.89
H      12.34       2.69      19.79
H      10.18       5.30      15.32
H      10.14       4.71      17.96
H      10.18      -5.30      15.63
H      10.14      -4.71      13.00
H      10.18       0.16      20.78
H      10.22      -2.48      20.19
H      10.18      -0.16      10.17
H      10.22       2.48      10.77
C       8.96       5.96      11.76
C       8.97       4.78      12.49
C       8.96      -5.96      19.19
C       8.97      -4.78      18.46
C       8.96       3.72      21.44
C       8.97       2.98      20.26
C       8.96      -3.72       9.51
C       8.97      -2.98      10.69
C      11.40      -5.97      19.19
C      11.39      -4.78      18.45
C      11.40       5.97      11.76
C      11.39       4.78      12.50
C      11.40      -3.72       9.51
C      11.39      -2.98      10.70
C      11.40       3.72      21.44
C      11.39       2.98      20.25
C      10.18       6.56      11.40
C      10.18       4.18      12.87
C      10.19       2.91      13.65
C      10.22       3.03      15.08
C      10.19       4.32      15.79
C      10.16       4.03      17.11
C      10.20       2.55      17.19
C      10.18      -6.56      19.55
C      10.18      -4.18      18.08
C      10.19      -2.91      17.30
C      10.22      -3.03      15.87
C      10.19      -4.32      15.16
C      10.16      -4.03      13.84
C      10.20      -2.55      13.76
C      10.18       4.07      22.03
C      10.18       2.61      19.66
C      10.17       1.83      18.39
C      10.14       0.40      18.51
C      10.17      -0.31      19.80
C      10.20      -1.64      19.50
C      10.16      -1.71      18.03
C      10.18      -4.07       8.92
C      10.18      -2.61      11.29
C      10.17      -1.83      12.56
C      10.14      -0.40      12.45
C      10.17       0.31      11.15
C      10.20       1.64      11.45
C      10.16       1.71      12.92
S      10.18       8.17      10.63
S      10.18      -8.17      20.32
S      10.18       4.85      23.64
S      10.18      -4.85       7.31
N      10.26       1.99      15.93
N      10.26      -1.99      15.02
N      10.10      -0.46      17.46
N      10.10       0.46      13.49
O      11.41       8.24       9.79
O      11.41      -8.24      21.16
O      11.41       5.69      23.72
O      11.41      -5.69       7.23
O       8.95      -8.24      21.16
O       8.95       8.24       9.79
O       8.95      -5.68       7.23
O       8.95       5.68      23.72
O      10.18       9.12      11.73
O      10.18      -9.12      19.22
O      10.18       3.74      24.60
O      10.18      -3.74       6.35
