12

C      11.14       5.37       5.34
C      12.61       5.24       5.65
H      12.13       4.50       7.66
H      11.53       6.98       3.89
C      12.99       4.80       7.03
C      10.73       6.58       4.53
N      10.23       4.60       5.92
H      10.49       7.41       5.22
H      13.68       3.94       6.99
H      13.42       5.66       7.57
H       9.91       6.35       3.84
N      13.53       5.67       4.82
