38

H       5.12       8.56       1.78
H       2.24       8.29       4.99
H       4.24      12.03       4.17
H       3.89       6.71       1.10
H       5.16       6.33       2.29
H       4.00       4.35       1.13
H       2.53       4.77       2.05
H       5.32       2.62       4.93
H       3.72      -1.11       3.47
H       2.56       2.59       1.60
C       5.72      11.14       2.06
C       4.75      10.37       2.88
C       4.55       9.01       2.59
C       3.62       8.27       3.33
C       2.94       8.88       4.39
C       3.18      10.22       4.70
C       4.07      10.99       3.93
C       2.52      10.89       5.85
C       4.08       6.26       2.09
C       3.62       4.83       2.05
C       3.97       2.78       3.24
C       4.68       2.08       4.23
C       4.57       0.69       4.32
C       3.78      -0.03       3.42
C       3.07       0.68       2.44
C       3.14       2.08       2.36
C       2.23      -0.06       1.47
C       5.35      -0.03       5.37
O       5.59      12.41       1.94
O       6.64      10.45       1.48
O       3.32       6.95       3.10
O       4.17       4.14       3.20
O       1.21       0.52       0.93
O       2.52      -1.26       1.14
O       5.05      -1.25       5.61
O       6.27       0.62       5.96
O       2.98      12.00       6.27
O       1.48      10.37       6.42
