300

Cd       6.02       7.54      28.32
Cd       9.14      11.43      13.51
Cd       0.97       1.22      16.10
Cd       4.08       5.11       1.29
H       8.57       8.44      17.17
H       8.10       7.79      19.83
H       6.54       4.35      27.85
H       8.41       2.67      27.77
H      11.15       5.95      28.45
H       9.17       7.46      28.56
H      11.91       0.74      25.07
H       0.68       2.82       1.64
H       6.58      10.53       2.36
H       7.05      11.17       5.02
H      11.46       1.98      13.04
H       9.59       3.67      12.97
H       6.85       0.39      13.65
H       5.99      11.51      13.76
H       6.09       5.59      10.27
H       4.38       3.51      16.46
H       1.28       3.91      27.25
H       0.77       3.30      24.59
H      10.69       1.02      16.58
H       8.64       2.48      16.65
H      11.24       5.87      15.96
H       0.21       4.27      15.87
H       6.00       5.48      19.35
H       7.65       7.60      13.15
H       3.78       2.42      12.45
H       4.30       3.03       9.78
H       7.30       5.31       1.77
H       9.35       3.85       1.84
H       6.76       0.46       1.16
H       4.84       2.05       1.06
H      12.00       0.85       4.54
H       7.51      11.37      27.97
H       1.53       4.21      12.45
H       2.01       4.86       9.79
H       3.57       8.30       1.77
H       1.70       9.98       1.84
H      -1.04       6.71       1.17
H       0.94       5.19       1.05
H      -1.81      11.91       4.54
H       9.43       9.83      27.97
H       3.53       2.12      27.26
H       3.05       1.48      24.60
H      -1.36      10.67      16.58
H       0.51       8.98      16.65
H       3.25      12.26      15.97
H       4.12       1.14      15.86
H       4.02       7.06      19.35
H       5.73       9.14      13.15
H       8.82       8.74       2.36
H       9.34       9.35       5.02
H      -0.59      11.63      13.04
H       1.47      10.17      12.97
H      -1.13       6.78      13.65
H       9.89       8.38      13.75
H       4.11       7.17      10.27
H       2.46       5.05      16.46
H       6.33      10.23      17.17
H       5.81       9.62      19.83
H       2.81       7.35      27.84
H       0.75       8.80      27.77
H       3.35      12.19      28.45
H       5.27      10.60      28.55
H      -1.90      11.80      25.07
H       2.60       1.28       1.64
H       8.45      10.57      25.01
H       8.95      11.21      22.67
H       6.40       8.02      21.29
H       5.93       7.40      23.64
H       9.36      11.71      20.84
H       9.80      12.27      18.48
H       6.71       8.39      10.20
H       6.20       7.76       7.86
H       8.75      10.95       6.48
H       9.23      11.56       8.83
H       5.80       7.26       6.03
H       5.35       6.70       3.68
H       3.40       4.26      19.42
H       3.91       4.89      21.76
H       1.36       1.70      23.14
H       0.88       1.09      20.79
H       4.31       5.39      23.58
H       4.75       5.96      25.94
H       1.66       2.08       4.61
H       1.16       1.44       6.95
H       3.71       4.63       8.33
H       4.18       5.25       5.98
H       0.75       0.94       8.78
H       0.31       0.38      11.14
C       8.25       9.13      17.93
C       7.98       8.79      19.40
C       7.57       4.65      27.98
C       8.61       3.73      27.93
C       9.91       4.19      28.13
C      10.14       5.55      28.33
C       9.04       6.40      28.39
C      11.20       2.44      26.98
C      12.33       1.48      27.04
C      12.58       0.67      25.93
C       0.22       1.42      28.17
C      -0.00       2.25      29.30
C       0.84       2.17       0.78
C      11.82       3.21      29.31
C       6.90       9.83       3.12
C       7.17      10.18       4.59
C      10.43       1.68      13.18
C       9.39       2.61      13.12
C       8.09       2.15      13.32
C       7.86       0.79      13.53
C       6.11      12.58      13.58
C       6.80       3.89      12.18
C       5.67       4.85      12.23
C       5.42       5.67      11.13
C       4.84       4.91      13.37
C       5.07       4.09      14.50
C       4.22       4.16      15.60
C       6.18       3.12      14.51
C       2.03       3.75      26.49
C       1.76       3.41      25.02
C      10.76       2.10      16.44
C       9.62       2.91      16.49
C       9.79       4.28      16.29
C      11.07       4.80      16.09
C      -0.80       3.92      16.04
C       7.81       5.16      17.44
C       6.62       6.04      17.38
C       5.78       6.11      18.49
C       6.38       6.84      16.24
C       7.24       6.80      15.11
C       6.98       7.62      14.02
C       8.42       5.92      15.11
C       3.03       2.58      11.68
C       3.30       2.92      10.21
C       7.23       4.23       1.64
C       8.37       3.42       1.69
C       8.20       2.05       1.49
C       6.93       1.53       1.29
C       5.85       2.41       1.23
C      10.19       1.17       2.64
C      11.37       0.29       2.58
C      12.22       0.22       3.68
C       8.77      12.12       1.44
C       7.91      12.16       0.31
C       8.17      11.36      28.83
C       9.57       0.40       0.30
C       1.85       3.52      11.68
C       2.12       3.86      10.21
C       2.53       8.00       1.63
C       1.49       8.93       1.69
C       0.19       8.47       1.49
C      -0.04       7.10       1.29
C       1.06       6.25       1.23
C      -1.10      10.21       2.64
C      -2.22      11.17       2.58
C      -2.47      11.98       3.68
C       9.88      11.23       1.44
C      10.11      10.40       0.31
C       9.27      10.48      28.83
C      -1.71       9.44       0.31
C       3.21       2.82      26.49
C       2.94       2.47      25.02
C      -0.32      10.97      16.44
C       0.72      10.04      16.49
C       2.02      10.50      16.29
C       2.25      11.86      16.09
C       3.99       0.07      16.04
C       3.31       8.76      17.44
C       4.43       7.80      17.38
C       4.68       6.99      18.49
C       5.27       7.74      16.24
C       5.04       8.56      15.11
C       5.89       8.49      14.02
C       3.92       9.53      15.11
C       8.07       8.90       3.13
C       8.35       9.24       4.60
C      -0.65      10.55      13.17
C       0.48       9.74      13.12
C       0.32       8.37      13.32
C      -0.96       7.85      13.53
C      10.91       8.74      13.58
C       2.30       7.49      12.18
C       3.48       6.61      12.23
C       4.33       6.54      11.13
C       3.73       5.81      13.37
C       2.87       5.85      14.50
C       3.12       5.03      15.60
C       1.68       6.73      14.51
C       7.08      10.07      17.93
C       6.80       9.73      19.40
C       2.87       8.42      27.98
C       1.74       9.23      27.93
C       1.90      10.60      28.13
C       3.18      11.13      28.33
C       4.25      10.24      28.38
C      -0.08      11.48      26.98
C      -1.26      12.36      27.04
C      -2.11      12.43      25.93
C       1.34       0.53      28.17
C       2.19       0.49      29.30
C       1.93       1.29       0.78
C       0.54      12.25      29.31
C       6.84       8.56      25.87
C       7.16       8.95      24.47
C       8.01      10.02      24.18
C       8.29      10.37      22.86
C       6.86       8.59      22.09
C       6.59       8.23      23.40
C       7.72       9.66      21.78
C       8.00      10.02      20.35
C       8.90      11.14      20.04
C       9.14      11.45      18.75
C       8.50      10.65      17.71
C       8.75      10.98      16.26
C       8.32      10.40      11.07
C       8.00      10.01       9.66
C       7.15       8.94       9.37
C       6.87       8.60       8.05
C       8.29      10.38       7.28
C       8.57      10.73       8.60
C       7.43       9.30       6.97
C       7.15       8.95       5.54
C       6.25       7.83       5.23
C       6.01       7.51       3.95
C       6.65       8.31       2.90
C       6.40       7.98       1.46
C       1.78       2.25      18.55
C       2.10       2.64      19.96
C       2.96       3.71      20.25
C       3.24       4.05      21.57
C       1.82       2.27      22.33
C       1.54       1.92      21.02
C       2.67       3.35      22.64
C       2.96       3.71      24.08
C       3.85       4.82      24.39
C       4.10       5.14      25.67
C       3.46       4.34      26.71
C       3.71       4.67      28.16
C       3.27       4.09       3.74
C       2.95       3.70       5.15
C       2.10       2.63       5.44
C       1.82       2.28       6.76
C       3.24       4.06       7.53
C       3.52       4.42       6.21
C       2.39       2.99       7.84
C       2.10       2.63       9.27
C       1.21       1.51       9.58
C       0.96       1.20      10.86
C       1.61       2.00      11.90
C       1.35       1.67      13.35
N       7.78       5.96      28.23
N      11.01       3.25      28.14
N      10.22       0.38      13.42
N       6.99       3.08      13.34
N      11.99       2.59      16.20
N       8.64       5.15      16.28
N       6.00       3.74       1.39
N       9.35       1.18       1.47
N       2.33       6.69       1.38
N      -0.91       9.40       1.47
N      -0.11      12.27      16.19
N       3.12       9.57      16.28
N      -1.88      10.06      13.42
N       1.47       7.50      13.34
N       4.10       8.91      28.23
N       0.75      11.47      28.15
O      10.48       2.58      26.00
O      11.57       3.94       0.65
O       7.51       3.76      11.19
O       6.42       2.39      15.47
O       8.10       4.49      18.42
O       9.19       5.86      14.14
O       9.90       1.84       3.62
O       8.81       0.48      28.96
O      -0.38      10.07       3.62
O      -1.47       8.71      28.96
O       2.59       8.89      18.42
O       3.69      10.27      14.15
O       2.01       8.16      11.19
O       0.91       6.80      15.47
O       0.21      10.81      26.00
O       1.30      12.17       0.66
O       8.20      10.26      15.37
O       9.50      11.97      15.96
O       7.31       9.23      26.85
O       6.08       7.54      26.04
O       6.95       8.70       0.56
O       5.64       6.99       1.15
O       7.85       9.74      12.05
O       9.08      11.43      11.23
O       3.16       3.95      29.06
O       4.46       5.66      28.46
O       2.25       2.91      17.57
O       1.02       1.22      18.39
O       1.90       2.39      14.25
O       0.60       0.68      13.66
O       2.80       3.42       2.77
O       4.03       5.11       3.58
