28

Zn      30.14      15.01      18.75
C      29.57      15.60      15.89
C      29.41      15.43      14.52
C      29.76      14.20      13.94
C      30.27      13.20      14.79
C      30.38      13.45      16.15
C      29.60      13.95      12.50
C      28.56      14.55      11.76
C      28.43      14.26      10.41
C      30.22      12.84      10.45
C      30.45      13.07      11.81
C      30.18      15.81      21.56
N      30.04      14.63      16.70
N      29.23      13.41       9.74
C      30.73      13.56      21.45
N      30.44      14.72      20.82
O      30.84      16.98      18.63
C      32.06      16.61      18.38
O      28.07      15.16      19.04
H      29.32      16.55      16.38
H      29.02      16.26      13.94
H      30.55      12.22      14.40
H      30.75      12.68      16.83
H      27.86      15.23      12.24
H      27.63      14.72       9.82
H      30.87      12.15       9.90
H      31.28      12.59      12.31
C      27.88      13.89      19.16
