28

Zn      21.40      14.15      10.49
N      21.31      14.55      12.54
N      20.44      15.77      19.50
N      21.70      14.45       8.41
O      22.10      12.19      10.64
O      19.32      14.00      10.22
H      20.60      12.63      12.86
H      20.26      12.92      15.29
H      21.75      16.97      14.83
H      21.99      16.51      12.41
H      19.08      13.95      16.98
H      18.84      14.45      19.40
H      22.07      17.03      19.34
H      22.50      16.60      16.94
C      23.33      12.56      10.85
C      19.13      15.27      10.10
C      20.84      13.58      13.34
C      20.65      13.75      14.71
C      20.99      14.99      15.29
C      21.49      15.99      14.45
C      21.63      15.74      13.09
C      20.81      15.24      16.74
C      19.78      14.63      17.47
C      19.64      14.92      18.82
C      21.43      16.34      18.79
C      21.66      16.11      17.44
C      21.46      13.36       7.66
C      21.99      15.61       7.78
