156

Ba       5.75       5.41       8.74
Ba       1.64       3.98      10.04
P      -0.57       3.86       6.34
P       3.81       7.73      10.44
P      -0.75       9.07       7.59
P      -0.29       5.53      12.44
P      -0.09       0.31      11.12
P       3.84       6.94       5.26
P       3.63       1.50       8.23
P       3.60       2.34      13.50
H       3.74       9.04       6.95
H       5.28       6.38      12.34
H       3.56       5.85      12.51
H       3.57      11.35       6.74
H       5.14       7.54      14.52
H       4.61       5.83      14.71
H       3.38       7.14      14.65
H       2.32       9.22       5.83
H       2.01       2.68       6.07
H       3.55       3.51       6.47
H       3.38       3.87       4.21
H       0.34       9.76      12.82
H       4.55       2.54       4.33
H       4.88      10.82       5.64
H       0.55       9.92       3.76
H       0.23       1.47      13.67
H       6.91       0.56      13.53
H       1.09      -0.31      15.21
H      -0.40       0.49      15.85
H      -0.51      -1.15      15.10
H       4.79       0.32      12.50
H       3.29      -0.61      12.21
H       0.22      10.04      11.05
H       5.19      -0.88      14.62
H       5.03      -2.03      13.23
H       6.65       8.02       4.91
H       3.67      -1.82      14.40
H      -0.48       5.32      15.47
H       5.58       1.56      15.64
H       2.08       7.52       2.98
H      -0.47       4.01       3.34
H       5.63       3.85      12.11
H       1.79       5.46       6.62
H      -1.25       9.60      12.00
H       4.47       2.54      17.10
H       3.24       1.11      18.54
H       4.36       4.27       2.13
H       0.15       8.04       5.34
H       6.30       5.46       2.86
H       3.04       6.39       1.51
H       4.35       7.80       0.10
H       3.15       4.91      16.56
H       1.10       3.95      15.82
H       2.44      -0.96       7.90
H       6.43       1.01       7.17
H       4.99      10.25      10.88
H       5.98       1.65       9.83
H       1.43       7.64       8.85
H      -0.04       8.43       2.98
H       1.19       7.81      11.50
H      -0.46       7.66      10.74
H       2.51      11.09       2.40
H       2.38       2.94       1.44
H       4.86       9.42       1.74
H      -0.48       1.84       8.04
H      -0.07      -0.26       5.87
H      -0.02      -0.58       7.67
H       1.17       0.49       6.81
C       3.80      10.79       5.81
C      -1.27       4.51      13.64
C       5.87       2.50      15.19
C      -0.71       8.67       5.02
C       5.30       2.83      13.96
C       1.69       6.64       3.46
C       2.20       6.35       4.72
C       0.17       4.80       3.72
C       0.40       4.83       5.11
C       6.76       3.40      15.85
C       5.96       3.72      13.13
C       3.42       9.34       5.93
C       0.72       5.80       2.85
C       1.48       5.56       5.59
C       4.99       2.22      17.98
C      -0.32       9.25       3.65
C       4.70       4.70       0.07
C       5.05       4.66       1.40
C       6.21       5.28       1.82
C       7.21       5.70       0.90
C       6.31       2.62      18.31
C       0.29       6.00       1.35
C       3.10       2.63       5.95
C       1.18       6.52       0.36
C       0.27       3.51      17.77
C      -1.05       3.18      17.33
C       2.54       6.80       0.66
C       0.10       7.96      11.65
C       2.86       4.30      18.59
C       2.46       4.49      17.28
C       1.24       3.98      16.87
C       5.73       0.59       9.80
C       1.69       8.69       8.91
C       3.49       2.80       4.47
C       1.16      10.98       8.39
C       0.83       9.63       8.35
C       2.84       9.08       9.60
C       3.17      10.47       9.70
C       4.26      -1.20       9.06
C      -0.16       9.43      11.89
C       4.60       0.18       9.10
C       6.58      -0.32      10.40
C       6.26      -1.69      10.37
C       7.47       1.36       7.09
C      -0.25       0.47      13.68
C       0.12       0.17       6.86
C       4.28       6.65      12.74
C       4.36       6.80      14.25
C      -0.00      -0.17      15.04
C       3.93      -0.18      13.00
C       4.49      -1.30      13.87
C      -1.05       4.51      15.04
S       2.96      11.58       4.46
S       2.46       1.88       3.32
S      -1.62      10.10       2.79
O       6.24       4.29       6.13
O       1.08      -0.19      10.25
O       0.31      -0.35      12.69
O      -0.03       4.13       7.79
O       3.27       6.28      10.07
O       2.14       1.42       8.75
O       3.59       1.41       6.47
O       2.56       3.20      14.24
O       3.15       0.68      13.81
O       4.06       6.70       6.94
O       4.99       6.17       4.58
O       3.87       7.87      12.18
O       7.58       2.16       5.95
O       4.12       8.62       4.95
O       5.24       7.98      10.04
O      -0.85       7.33       7.61
O       6.29       9.61       8.38
O       3.49      -0.77       4.88
O       5.61       0.24       4.14
O       2.97      10.58       3.11
O       1.36       1.15       4.05
O       3.29       0.88       2.57
O      -0.98       9.69       5.95
O       1.77       2.93       2.21
O       6.15      11.28       3.57
O      -1.08      10.57       1.47
O       5.36       9.03       2.51
O       1.14       5.11      12.65
O      -0.84       5.27      10.99
O       3.32       2.70      11.84
O      -0.31       7.25      12.78
O       4.11       3.12       8.71
O      -0.02       2.06      11.17
