9

Ag       8.08       0.64      16.56
C      10.63       1.11      18.77
N       6.54       2.28      16.83
N       9.63       0.85      18.20
N       9.53       0.46      14.83
C       5.56       2.83      17.18
N       6.65      -1.10      16.41
C       5.66      -1.64      16.07
C      10.47       0.02      14.29
