9

Ag       4.82      11.62      16.47
N       3.27      11.83      14.82
C       7.34      13.81      15.84
N       6.25       9.88      16.61
C       2.27      12.09      14.26
N       6.36      13.26      16.19
N       3.37      11.44      18.20
C       2.43      11.00      18.74
C       7.24       9.34      16.95
