57

O       0.25      13.29      10.38
O      -2.03      13.44      10.34
H      -1.42      13.93      13.30
H      -0.34      20.90      12.03
H      -0.09      21.73      14.29
H      -0.79      19.13      17.60
H      -1.43      14.77      15.56
O      -1.44      22.25      17.31
O       0.85      22.09      17.35
H      -2.65      15.40      19.71
H      -2.12      17.07      20.18
H      -3.87      16.73      19.88
H      -2.85      17.93      17.95
H      -3.41      16.28      17.49
H      -1.08      15.40      17.76
H      -0.47      17.00      18.20
H       2.71      18.01      10.37
H       2.25      17.22      11.94
H       3.76      16.75      11.10
H       2.01      15.03      10.77
H       2.51      15.78       9.22
H       0.11      15.66       9.09
H       0.55      17.33       9.35
H      -0.42      19.20       7.34
H      -1.32      20.71       7.77
H       0.42      20.80       7.31
H       0.19      21.02       9.75
H       1.06      19.51       9.34
H      -1.35      18.34       9.51
H      -1.89      19.85      10.19
C      -0.86      13.85      10.72
C      -1.13      14.91      12.94
C      -0.79      15.05      11.59
C      -0.37      16.32      11.11
C      -0.52      17.48      11.95
C      -0.72      17.27      13.34
C      -1.01      15.98      13.83
C      -0.51      18.82      11.47
C      -0.37      19.88      12.39
C      -0.39      19.65      13.77
C      -0.63      18.35      14.26
C      -0.79      18.14      15.66
C      -1.07      16.82      16.13
C      -1.20      15.77      15.20
C      -0.27      20.73      14.67
C      -0.40      20.53      16.04
C      -0.67      19.24      16.53
C      -0.32      21.69      16.96
C      -1.25      16.49      17.59
C      -2.66      16.84      18.08
C      -2.83      16.49      19.56
C       0.51      16.35       9.86
C       1.97      15.97      10.18
C       2.71      17.06      10.95
C      -0.99      19.21      10.08
C       0.07      20.01       9.30
C      -0.34      20.19       7.84
