38

H       6.37       9.36      20.00
H       7.85       2.80      22.55
H       6.71       7.98      24.17
H       7.54       4.19      18.38
H       6.49       8.97      17.64
H       7.74       3.19      24.91
H       6.50       8.64      22.24
H       7.73       3.52      20.31
C       6.98       7.44      26.67
C       7.26       4.73      15.88
C       7.20       5.71      16.96
C       7.04       6.45      25.59
C       6.72       7.92      17.82
C       7.51       4.24      24.73
C       6.90       7.07      16.72
C       7.34       5.09      25.83
C       7.33       5.24      18.27
C       6.92       6.93      24.28
C       7.14       6.08      19.39
C       7.10       6.08      23.17
C       6.83       7.44      19.13
C       7.40       4.72      23.42
C       7.23       5.62      20.74
C       7.01       6.54      21.81
C       6.70       7.88      21.50
C       7.54       4.28      21.05
C       6.61       8.32      20.19
C       7.61       3.84      22.36
N       7.47       4.57      27.16
N       6.77       7.59      15.39
O       5.77       7.79      27.08
O       8.48       4.38      15.47
O       6.10       4.25      15.48
O       8.15       7.92      27.07
O       8.15       3.48      27.38
O       6.80       5.09      28.15
O       6.07       8.67      15.17
O       7.45       7.08      14.40
