38

H       4.35       3.28       1.27
H       2.89      -3.29      -1.27
H       4.02       1.90      -2.90
H       3.19      -1.90       2.90
H       4.24       2.89       3.63
H       3.00      -2.89      -3.63
H       4.23       2.55      -0.97
H       3.01      -2.56       0.97
C       3.75       1.36      -5.39
C       3.47      -1.36       5.39
C       3.53      -0.37       4.31
C       3.69       0.37      -4.31
C       4.01       1.84       3.46
C       3.22      -1.84      -3.46
C       3.83       0.99       4.55
C       3.40      -0.99      -4.55
C       3.40      -0.85       3.00
C       3.81       0.85      -3.00
C       3.59       0.00       1.89
C       3.64      -0.00      -1.89
C       3.90       1.36       2.14
C       3.33      -1.36      -2.14
C       3.50      -0.46       0.54
C       3.73       0.46      -0.54
C       4.03       1.80      -0.23
C       3.20      -1.81       0.23
C       4.11       2.24       1.09
C       3.12      -2.25      -1.09
N       3.27      -1.52      -5.89
N       3.96       1.51       5.89
O       4.96       1.70      -5.80
O       2.26      -1.70       5.80
O       4.64      -1.83       5.79
O       2.58       1.83      -5.79
O       2.59      -2.61      -6.10
O       3.94      -0.99      -6.88
O       4.65       2.59       6.10
O       3.28       1.00       6.88
