25

N      -2.21       5.65       2.49
N      -3.82       7.18      -0.43
N      -2.00       7.65       1.47
N      -1.14       7.67       2.51
N       1.14       5.27       6.41
C      -2.63       6.43       1.48
C      -3.59       6.15       0.43
H      -1.62       4.26       4.71
H      -0.11       3.62       6.60
C       1.36       6.43       5.74
C       0.58       6.85       4.68
H       0.80       7.78       4.17
H       2.23       7.00       6.06
H      -4.05       4.14       1.03
H      -5.64       3.79      -0.90
H      -6.04       5.69      -2.50
H      -4.83       7.86      -2.11
C      -1.30       6.45       3.10
C      -4.24       4.92       0.29
C      -5.13       4.73      -0.77
C      -5.35       5.79      -1.66
C      -4.69       7.00      -1.45
C      -0.51       6.07       4.26
C      -0.77       4.89       4.99
C       0.06       4.54       6.04
