25

N      -4.87       3.99      11.89
N      -6.48       5.75       9.10
H      -6.71       6.00      12.47
H      -8.29       7.86      11.81
H      -8.69       8.29       9.36
H      -7.49       6.86       7.68
C      -5.29       4.47      10.70
C      -6.25       5.52      10.43
C      -1.30       0.79      12.85
C      -2.09       1.48      11.95
H      -4.28       2.76      14.21
H      -2.77       1.45      15.71
H      -0.43       0.22      12.51
H      -1.86       1.47      10.89
C      -2.60       1.48      14.63
C      -3.96       3.05      11.50
C      -6.90       6.26      11.43
C      -7.78       7.27      11.06
C      -8.01       7.51       9.70
C      -7.35       6.72       8.76
C      -3.17       2.24      12.42
C      -3.44       2.21      13.80
N      -4.67       3.86       9.65
N      -3.81       2.94      10.16
N      -1.52       0.79      14.19
