25

H      -1.43      -4.82      14.53
H      -3.02      -5.17      16.47
N      -1.19      -1.78      16.00
H      -2.20      -1.10      17.67
C      -0.00      -2.53      14.09
H      -3.41      -3.27      18.07
C      -0.97      -2.81      15.13
N       0.42      -3.31      13.08
C       3.99      -2.53       9.82
C       3.20      -2.10      10.88
H       1.01      -4.70      10.85
H       2.52      -5.34       8.96
H       4.85      -1.96       9.50
H       3.43      -1.18      11.40
C       1.33      -2.51      12.46
C      -1.62      -4.04      15.27
C      -2.50      -4.22      16.33
C      -2.73      -3.17      17.23
C      -2.06      -1.96      17.02
C       2.12      -2.89      11.30
C       1.85      -4.07      10.58
C       2.69      -4.42       9.53
N       0.62      -1.31      14.09
N       1.48      -1.29      13.05
N       3.76      -3.69       9.16
