25

N       7.33       1.31      14.09
N       6.47       1.29      13.05
N       4.19       3.69       9.16
N       7.54       3.31      13.08
N       9.15       1.78      16.00
C       6.63       2.51      12.46
C       9.57       4.04      15.27
H       9.38       4.82      14.53
H      10.97       5.17      16.47
H      11.36       3.27      18.07
H      10.16       1.10      17.67
C       5.84       2.89      11.30
C      10.02       1.96      17.02
C       6.10       4.07      10.58
C       5.27       4.42       9.53
C      10.46       4.23      16.33
C      10.68       3.17      17.23
H       6.95       4.70      10.85
H       5.44       5.34       8.96
H       3.10       1.96       9.50
H       4.52       1.18      11.40
C       7.96       2.53      14.09
C       8.92       2.81      15.13
C       3.96       2.53       9.82
C       4.75       2.10      10.88
