25

N       4.71      10.27       1.47
N       3.85      10.25       2.51
N       1.57      12.65       6.41
H       4.32      13.66       4.71
C       4.00      11.47       3.10
H       0.47      10.92       6.06
H       1.90      10.14       4.17
C       6.95      13.00       0.29
C       7.83      13.18      -0.77
C       7.39      10.92      -1.45
C       3.21      11.85       4.26
C       3.48      13.03       4.99
C       2.64      13.38       6.04
C       8.06      12.13      -1.66
H       6.76      13.78       1.03
H       8.34      14.13      -0.90
H       8.74      12.23      -2.50
H       7.53      10.06      -2.11
H       2.81      14.30       6.60
C       5.33      11.48       1.48
C       6.30      11.77       0.43
C       1.34      11.49       5.74
C       2.13      11.06       4.68
N       4.91      12.27       2.49
N       6.52      10.74      -0.43
