25

N       5.92      -2.55       7.39
C       3.69      -2.20       4.42
C       2.81      -3.03       3.73
C       2.58      -4.33       4.20
N       6.78      -1.66       7.92
C       7.43       0.65       7.40
C       3.24      -4.75       5.35
C       7.17       1.86       6.74
C       8.02       2.94       6.95
N       9.09       2.90       7.77
N       5.73      -0.68       6.15
N       4.10      -3.96       6.02
H       3.89      -1.18       4.12
H       2.30      -2.67       2.83
H       1.89      -5.00       3.69
H       3.09      -5.75       5.77
C       5.30      -1.94       6.33
C       4.34      -2.70       5.56
C       9.31       1.74       8.45
C       8.51       0.62       8.30
H       6.34       1.94       6.05
H       7.85       3.89       6.44
H      10.17       1.73       9.11
H       8.73      -0.29       8.85
C       6.64      -0.54       7.16
