36

Al      10.69       4.75       4.78
Al      13.35       4.77       2.75
Al       8.02       2.72       4.76
Al       5.36       2.75       2.73
C      13.00       6.43       5.17
C       8.32       5.16       6.42
C      13.66       2.32       1.11
C       7.67       1.08       2.33
C      10.34       2.33       6.42
C      10.99       6.40       2.32
C       5.66       1.10       5.18
C      15.66       5.17       1.07
H       8.99       4.19       3.17
H       6.31       4.33       4.20
H      14.33       3.31       4.34
H      11.64       3.18       3.31
O       9.39       3.71       3.91
O       9.39       5.62       5.90
O      10.93       3.43       6.15
O      10.38       6.11       3.41
O      12.06       3.90       3.80
O      11.94       5.89       5.64
O      13.59       6.15       4.08
O       7.72       4.07       6.13
O       4.06       1.86       1.63
O      13.05       3.40       1.40
O       6.62       1.62       1.86
O       8.26       1.35       3.43
O       9.29       1.86       5.87
O      12.06       5.88       1.86
O      14.73       3.80       3.60
O      14.60       5.63       1.61
O       6.73       3.60       3.71
O       6.73       1.62       5.64
O       5.06       1.39       4.09
O       5.59       4.08       1.36
