106

Ag       4.64      10.11       3.88
Ag       1.55       3.37      11.63
H       3.30       7.18       3.88
H       1.73       5.79       5.22
H       1.87       8.84       8.26
H       3.39      10.14       6.78
H       0.64       5.38       7.40
H       1.10       6.38       8.77
H       5.98      13.04       3.88
H       1.36       0.95       5.22
H       1.23      11.38       8.26
H       5.89      10.09       6.78
H       2.46       1.36       7.40
H       2.00       0.36       8.77
H       5.98       7.18       3.88
H       1.36       5.79       2.53
H       1.23       8.84      14.99
H       5.89      10.14       0.97
H       2.46       5.38       0.35
H       2.00       6.38      14.48
H       3.31      13.04       3.88
H       1.73       0.95       2.53
H       1.87      11.38      14.99
H       3.39      10.09       0.97
H       0.64       1.36       0.35
H       1.10       0.36      14.48
H       2.89       6.30      11.63
H       4.46       7.69      10.28
H       4.32       4.64       7.24
H       2.80       3.34       8.72
H       5.55       8.10       8.10
H       5.09       7.11       6.73
H       0.21       0.44      11.63
H       4.83      12.53      10.28
H       4.96       2.10       7.24
H       0.30       3.40       8.72
H       3.73      12.12       8.10
H       4.19      13.12       6.73
H       0.21       6.30      11.63
H       4.83       7.69      12.97
H       4.96       4.64       0.51
H       0.30       3.34      14.53
H       3.73       8.10      15.15
H       4.19       7.11       1.02
H       2.88       0.44      11.63
H       4.46      12.53      12.97
H       4.32       2.10       0.51
H       2.80       3.40      14.53
H       5.55      12.12      15.15
H       5.09      13.12       1.02
C       2.96       7.51       4.86
C       2.08       6.74       5.61
C       1.66       7.19       6.88
C       2.15       8.44       7.29
C       3.02       9.16       6.48
C       0.71       6.42       7.74
C       0.13      12.71       4.86
C       1.01      13.48       5.61
C       1.43      13.04       6.88
C       0.94      11.78       7.29
C       0.08      11.07       6.48
C       2.38       0.32       7.74
C       0.13       7.51       2.90
C       1.01       6.74       2.14
C       1.43       7.19       0.88
C       0.94       8.44       0.46
C       0.08       9.16       1.27
C       2.38       6.42       0.01
C       2.96      12.71       2.90
C       2.08      13.48       2.14
C       1.66      13.04       0.88
C       2.15      11.78       0.46
C       3.02      11.07       1.27
C       0.71       0.32       0.01
C       3.23       5.97      10.65
C       4.11       6.74       9.89
C       4.53       6.30       8.63
C       4.04       5.04       8.21
C       3.17       4.32       9.02
C       5.48       7.06       7.76
C       6.05       0.77      10.65
C       5.18       0.00       9.89
C       4.76       0.45       8.63
C       5.25       1.70       8.21
C       6.11       2.42       9.02
C       3.80      13.16       7.76
C       6.06       5.97      12.61
C       5.18       6.74      13.36
C       4.76       6.30      14.63
C       5.25       5.04      15.05
C       6.11       4.32      14.23
C       3.80       7.06      15.49
C       3.23       0.77      12.61
C       4.11       0.00      13.36
C       4.53       0.45      14.63
C       4.04       1.70      15.05
C       3.17       2.42      14.23
C       5.48      13.16      15.49
N       3.45       8.71       5.28
N       5.83      11.52       5.28
N       5.83       8.71       2.47
N       3.45      11.51       2.47
N       2.74       4.77      10.22
N       0.36       1.97      10.22
N       0.36       4.77      13.03
N       2.74       1.97      13.03
