39

Zn      12.60       5.36      11.37
Zn       8.08       0.90      10.65
Zn      18.19       8.22      11.02
C      15.15       7.34      11.80
C      14.62       6.61       9.82
C      15.91       7.12       9.77
C      16.87       7.23       8.65
C      13.80       5.88       8.84
C      13.17       2.62      11.24
C      11.72       2.72      11.07
C      20.50       6.60       9.97
C      19.11      11.25      10.23
C       6.82      -1.10      12.21
C      19.32      10.49      12.26
C      19.19       9.53      13.38
C       7.55      -0.29      13.18
C      10.82       0.29      10.79
C      10.73       1.75      10.95
C      19.78       5.89      12.06
C      12.99       5.17      14.31
C      10.96       6.21      13.84
C       8.27       0.51       7.72
C       7.25       2.54       8.18
C       9.78       3.70      11.01
N      14.14       6.76      11.09
N      16.24       7.57      11.02
N      11.11       3.95      11.09
N       6.66      -0.62      10.93
N      18.87      10.16      11.00
N       9.52       2.37      10.93
N      12.10       5.64      13.40
N       7.81       1.40       8.62
N      19.65       6.74      11.01
O      17.96       7.85       8.89
O      12.67       5.47       9.20
O      13.83       3.70      11.48
O      18.56       8.44      13.14
O       7.97       0.83      12.82
O       9.73      -0.35      10.54
