140

In       0.00       0.00      11.03
In       2.50       7.43       0.00
In       3.64       0.00      11.03
In      -1.13       7.43       0.00
H       1.27      10.67      11.12
H       4.86      10.68      12.95
H       2.58       7.38      13.03
H       2.68       8.55      15.43
H       2.53       8.27      17.69
H      -0.79       7.61      17.86
H       5.79       1.61      12.05
H      -0.41       6.76      11.78
H      -1.03      11.61       0.09
H       2.65      11.59       1.92
H       7.20       0.05       2.00
H       4.83      13.73       4.40
H       4.98      14.01       6.66
H       1.03      14.67       6.83
H       3.99       5.81       1.02
H       2.92       0.66       0.75
H       3.74       4.19      10.94
H       0.15       4.17       9.11
H       2.43       7.47       9.03
H       2.33       6.30       6.63
H       2.47       6.58       4.37
H       5.80       7.24       4.20
H      -0.78      13.24      10.01
H       5.42       8.09      10.28
H       6.04       3.24      21.97
H       2.36       3.26      20.14
H      -2.19      14.80      20.06
H       0.18       1.13      17.66
H       0.03       0.84      15.40
H       3.98       0.18      15.23
H       1.02       9.04      21.04
H       2.09      14.19      21.31
C       3.26      12.35      11.58
C       3.08      10.91      11.98
C       1.92      10.24      11.62
C       4.06      10.26      12.73
C       1.73       8.92      12.02
C       2.69       8.26      12.77
C       3.82       8.97      13.15
C       3.45       8.35      15.92
C       4.62       8.24      15.27
C       3.36       8.17      17.27
C       5.75       7.95      16.03
C       0.47       8.24      11.61
C       4.48       7.85      18.01
C       4.41       7.65      19.50
C       5.71       7.77      17.37
C       4.26       9.93       0.55
C       4.43      11.36       0.95
C      -1.68      12.04       0.59
C       3.45      12.02       1.70
C      -1.49      13.36       0.99
C       4.82      14.01       1.74
C       3.69      13.31       2.12
C       4.06      13.93       4.89
C       2.89      14.04       4.24
C       4.16      14.10       6.24
C       1.76      14.33       5.00
C      -0.23      14.03       0.58
C       3.03      14.43       6.98
C       3.10      14.63       8.47
C       1.80      14.50       6.34
C       1.75       2.51      10.48
C       1.93       3.94      10.08
C       3.09       4.62      10.44
C       0.94       4.59       9.33
C       3.28       5.94      10.04
C       2.32       6.59       9.29
C       1.19       5.88       8.91
C       1.56       6.50       6.14
C       0.39       6.61       6.79
C       1.65       6.68       4.79
C      -0.74       6.90       6.03
C       4.54       6.61      10.45
C       0.53       7.00       4.05
C       0.60       7.20       2.56
C      -0.70       7.08       4.69
C       0.75       4.92      21.51
C       0.58       3.49      21.11
C       6.69       2.81      21.47
C       1.56       2.83      20.36
C       6.50       1.49      21.07
C       0.19       0.84      20.32
C       1.32       1.55      19.94
C       0.94       0.92      17.17
C       2.12       0.81      17.82
C       0.85       0.75      15.82
C       3.25       0.52      17.06
C       5.24       0.82      21.48
C       1.97       0.42      15.08
C       1.91       0.22      13.59
C       3.20       0.35      15.72
N      -0.20       8.00      15.40
N       0.44      14.27       4.37
N       5.21       6.85       6.66
N       4.57       0.58      17.69
O       5.47       0.80      11.67
O       4.36      12.86      11.71
O       2.24      12.89      11.11
O       4.82       8.33      13.91
O       0.33       7.03      11.99
O      -0.37       8.86      10.95
O       3.32       7.80      20.07
O       5.49       7.27      20.03
O       0.52       7.02      15.60
O       0.11       8.89      14.68
O       4.31       6.62       0.64
O       3.15       9.42       0.68
O       5.27       9.39       0.08
O       2.69      13.95       2.88
O       2.17       0.39       0.96
O       0.60      13.41      21.98
O       4.19      14.48       9.04
O       4.29       0.15       9.00
O       1.98       0.40       4.57
O       0.12      13.38       3.65
O      -0.46      14.05      10.39
O       0.65       1.99      10.35
O       2.76       1.96      10.95
O       0.18       6.52       8.15
O       4.68       7.82      10.07
O       5.38       5.99      11.11
O       1.69       7.05       1.99
O      -0.48       7.58       2.03
O       4.49       7.83       6.46
O       4.90       5.96       7.38
O       0.70       8.23      21.42
O       1.86       5.43      21.38
O      -0.26       5.47      21.98
O       2.32       0.90      19.18
O       2.84      14.46      21.10
O       4.40       1.44       0.08
O       0.81       0.37      13.02
O       0.72      14.70      13.06
O       3.03      14.45      17.49
O       4.88       1.47      18.41
