636

C       6.40       9.13      69.85
C       7.08       9.95      68.90
C       8.04      10.92      69.28
C       8.29      11.10      70.67
C       7.44      10.53      71.64
C       6.56       9.50      71.22
C       5.66       7.96      69.47
C       5.23       7.74      68.13
C       4.69       6.52      67.68
C       4.71       5.43      68.58
C       4.91       5.63      69.97
C       5.37       6.90      70.39
C       7.43      10.98      72.98
C       8.68      11.79      68.37
C       4.13       6.40      66.38
C       4.56       4.58      70.85
C      15.04       7.67      14.01
C      15.30       6.71      12.99
C      15.65       5.37      13.28
C      15.89       5.02      14.64
C      15.87       6.00      15.67
C      15.38       7.28      15.34
C      14.38       8.91      13.71
C      14.35       9.45      12.39
C      13.52      10.52      12.01
C      12.58      10.98      12.97
C      12.71      10.64      14.34
C      13.63       9.63      14.69
C      16.34       5.71      16.98
C      15.82       4.39      12.29
C      13.64      11.12      10.73
C      11.96      11.39      15.28
C      19.46      17.35      41.95
C      18.50      17.57      40.91
C      17.16      17.89      41.18
C      16.71      17.86      42.52
C      17.56      17.47      43.58
C      18.93      17.28      43.27
C      20.86      17.32      41.67
C       1.08      17.04      40.36
C       2.43      17.22      39.99
C       3.29      17.82      40.94
C       2.91      17.93      42.30
C       1.57      17.64      42.65
C      17.09      17.28      44.91
C      16.22      18.21      40.16
C       2.89      16.80      38.72
C       3.92      18.25      43.24
C       9.61      15.58      75.12
C       2.25       1.96      74.70
C      11.34      17.73      79.07
C       3.00       3.04      75.22
C       3.69       3.93      74.38
C       3.69       3.76      72.97
C       2.92       2.69      72.46
C       2.22       1.81      73.29
C       9.54      15.45      73.71
C       8.96      14.32      73.11
C       8.40      13.30      73.90
C       8.38      13.44      75.30
C       8.99      14.57      75.90
C      10.98      16.60      79.85
C      11.17      16.59      81.24
C      11.70      17.71      81.89
C       1.61       1.35      81.16
C       1.51       1.34      79.76
C      11.18      17.72      77.66
C      10.31      16.66      75.71
C       1.55       1.03      75.52
C      19.11       1.62      19.33
C      10.98      14.80      19.06
C      10.02      16.76      23.39
C      11.55      13.61      19.60
C      11.97      12.55      18.77
C      11.80      12.61      17.37
C      11.25      13.80      16.83
C      10.86      14.87      17.65
C      19.12       1.68      17.92
C      18.48       2.73      17.24
C      17.82       3.75      17.94
C      17.86       3.75      19.35
C      18.50       2.69      20.03
C      19.39       0.09      24.17
C      19.35      35.11      25.57
C       9.96      16.57      26.23
C      10.74      15.66      25.47
C      10.76      15.76      24.07
C      10.04      16.85      21.98
C      19.67       0.49      19.99
C      10.53      15.88      19.86
C       2.02      34.75      47.33
C      17.50       0.04      47.07
C      19.70       0.01      51.40
C      16.18       0.13      47.60
C      15.05       0.24      46.76
C      15.19       0.33      45.36
C      16.50       0.22      44.83
C      17.62       0.08      45.66
C       2.06      34.71      45.92
C       3.28      34.69      45.23
C       4.51      34.70      45.92
C       4.49      34.69      47.33
C       3.26      34.71      48.02
C      20.88       0.26      52.15
C      20.84       0.37      53.55
C      19.62       0.21      54.24
C      18.44      35.09      53.50
C      18.48      34.99      52.10
C      19.75      35.03      49.99
C      21.05      34.85      47.99
C      18.66      35.05      47.87
C      12.71      16.67      36.69
C       7.89      16.19      36.52
C      10.49      15.91      32.45
C       6.67      16.02      35.81
C       5.42      16.14      36.45
C       5.36      16.44      37.82
C       6.56      16.57      38.55
C       7.80      16.44      37.91
C      12.61      17.03      38.06
C      13.75      17.37      38.80
C      15.05      17.34      38.24
C      15.16      16.91      36.89
C      14.01      16.62      36.13
C      11.72      15.79      31.77
C      11.77      15.79      30.36
C      10.59      15.94      29.61
C       9.35      16.03      30.28
C       9.30      16.02      31.68
C      10.44      15.99      33.87
C      11.53      16.39      35.95
C       9.14      16.16      35.87
C      18.97       2.15       8.84
C      11.68      15.79       8.59
C       0.44       0.73       4.58
C      12.45      14.84       7.87
C      12.96      13.68       8.49
C      12.72      13.45       9.86
C      12.01      14.41      10.60
C      11.50      15.57       9.98
C      18.67       1.85      10.19
C      17.79       2.64      10.93
C      17.19       3.80      10.37
C      17.53       4.14       9.04
C      18.37       3.31       8.28
C      20.21       1.90       3.95
C      20.14       2.00       2.55
C       0.27       0.92       1.75
C      11.14      17.33       2.38
C      11.18      17.25       3.78
C       0.41       0.59       5.99
C      19.81       1.29       8.09
C      11.09      16.91       7.96
C       9.08      15.52      64.76
C      21.18       2.38      64.36
C       9.10      17.80      60.48
C       1.34       3.49      63.58
C       2.13       4.52      64.14
C       2.49       4.46      65.50
C       2.01       3.40      66.30
C       1.24       2.38      65.73
C       9.52      15.45      66.10
C       9.29      14.31      66.88
C       8.58      13.18      66.37
C       8.12      13.26      65.04
C       8.38      14.39      64.24
C       8.29      16.80      59.88
C       8.12      16.75      58.49
C       8.76      17.69      57.66
C      19.68       1.16      58.25
C      19.84       1.21      59.64
C       9.35      17.80      61.88
C       9.35      16.67      63.98
C      20.47       1.30      63.79
C      16.54      26.68      69.83
C      17.21      27.51      68.89
C      18.18      28.47      69.27
C      18.44      28.64      70.65
C      17.58      28.07      71.62
C      16.69      27.05      71.20
C      15.80      25.51      69.45
C      15.37      25.30      68.11
C      14.83      24.07      67.65
C      14.85      22.98      68.55
C      15.05      23.18      69.94
C      15.51      24.45      70.37
C      17.57      28.53      72.96
C      18.82      29.34      68.36
C      14.27      23.96      66.36
C      14.70      22.14      70.82
C       4.90      25.23      14.00
C       5.16      24.27      12.98
C       5.51      22.94      13.28
C       5.75      22.58      14.63
C       5.74      23.56      15.66
C       5.24      24.85      15.33
C       4.24      26.47      13.71
C       4.22      27.01      12.39
C       3.38      28.09      12.01
C       2.45      28.55      12.96
C       2.57      28.21      14.33
C       3.49      27.19      14.69
C       6.20      23.27      16.97
C       5.68      21.95      12.28
C       3.50      28.68      10.73
C       1.82      28.96      15.27
C       9.32      34.91      41.95
C       8.36       0.01      40.91
C       7.02       0.33      41.18
C       6.57       0.30      42.52
C       7.42      35.03      43.58
C       8.80      34.84      43.28
C      10.72      34.88      41.67
C      11.22      34.60      40.36
C      12.57      34.78      39.99
C      13.43       0.26      40.94
C      13.05       0.37      42.30
C      11.71       0.07      42.65
C       6.95      34.84      44.91
C       6.08       0.65      40.16
C      13.03      34.36      38.72
C      14.06       0.69      43.24
C      19.75      33.12      75.09
C      12.37      19.54      74.68
C      21.26       0.22      79.08
C      13.14      20.61      75.20
C      13.83      21.51      74.35
C      13.81      21.34      72.95
C      13.02      20.28      72.43
C      12.31      19.41      73.27
C      19.72      32.97      73.69
C      19.13      31.85      73.09
C      18.55      30.84      73.88
C      18.51      30.99      75.28
C      19.11      32.12      75.87
C      20.81      34.24      79.85
C      20.91      34.24      81.25
C      21.45       0.23      81.92
C      12.07      18.84      81.13
C      11.90      18.85      79.74
C      21.20       0.19      77.66
C      20.44      34.20      75.69
C      11.69      18.61      75.51
C       8.97      19.18      19.33
C       0.84      32.36      19.06
C      20.16      34.32      23.39
C       1.41      31.17      19.60
C       1.83      30.11      18.77
C       1.66      30.17      17.37
C       1.11      31.36      16.83
C       0.72      32.43      17.65
C       8.97      19.24      17.92
C       8.34      20.29      17.23
C       7.67      21.31      17.94
C       7.72      21.31      19.34
C       8.36      20.25      20.03
C       9.25      17.65      24.17
C       9.21      17.55      25.57
C      20.10      34.12      26.23
C       0.60      33.22      25.47
C       0.62      33.31      24.07
C      20.19      34.41      21.98
C       9.52      18.05      19.99
C       0.39      33.43      19.86
C      12.16      17.19      47.33
C       7.36      17.60      47.07
C       9.56      17.57      51.40
C       6.04      17.69      47.60
C       4.91      17.80      46.76
C       5.05      17.89      45.36
C       6.36      17.78      44.83
C       7.48      17.64      45.66
C      12.20      17.15      45.92
C      13.42      17.13      45.23
C      14.65      17.14      45.92
C      14.63      17.13      47.33
C      13.40      17.15      48.02
C      10.74      17.82      52.15
C      10.70      17.93      53.55
C       9.48      17.77      54.24
C       8.30      17.53      53.50
C       8.34      17.43      52.10
C       9.61      17.47      49.99
C      10.91      17.29      47.99
C       8.52      17.49      47.87
C       2.57      34.23      36.70
C      18.03      33.75      36.52
C      20.63      33.47      32.46
C      16.81      33.58      35.81
C      15.56      33.70      36.45
C      15.50      34.00      37.82
C      16.70      34.13      38.55
C      17.94      34.00      37.91
C       2.47      34.59      38.06
C       3.61      34.93      38.80
C       4.91      34.90      38.24
C       5.02      34.47      36.89
C       3.87      34.18      36.13
C       1.58      33.35      31.77
C       1.63      33.35      30.36
C      20.73      33.50      29.61
C      19.49      33.59      30.28
C      19.44      33.58      31.69
C      20.58      33.55      33.87
C       1.39      33.95      35.95
C      19.28      33.72      35.87
C       8.83      19.71       8.82
C       1.54      33.35       8.58
C      10.69      18.31       4.58
C       2.29      32.39       7.85
C       2.82      31.23       8.48
C       2.59      31.02       9.85
C       1.89      31.98      10.59
C       1.38      33.13       9.97
C       8.51      19.40      10.16
C       7.63      20.19      10.91
C       7.04      21.36      10.36
C       7.39      21.70       9.04
C       8.24      20.87       8.27
C      10.21      19.47       3.93
C      10.19      19.56       2.53
C      10.63      18.48       1.74
C       0.81      34.89       2.35
C       0.89      34.79       3.75
C      10.62      18.18       5.99
C       9.68      18.86       8.08
C       0.93      34.46       7.96
C      19.22      33.08      64.76
C      11.04      19.94      64.35
C      19.24       0.24      60.48
C      11.47      21.05      63.57
C      12.26      22.08      64.13
C      12.63      22.02      65.49
C      12.15      20.97      66.29
C      11.37      19.94      65.73
C      19.66      33.01      66.10
C      19.43      31.87      66.88
C      18.72      30.75      66.37
C      18.26      30.82      65.04
C      18.52      31.96      64.24
C      18.44      34.36      59.88
C      18.26      34.31      58.49
C      18.90       0.13      57.66
C       9.53      18.71      58.25
C       9.69      18.77      59.64
C      19.49       0.25      61.88
C      19.49      34.23      63.98
C      10.33      18.86      63.79
H       6.99       9.77      67.90
H       5.62       6.98      71.37
H      10.10      11.25      71.22
H       5.38       3.83      67.83
H       5.96       9.08      71.93
H       5.25       8.52      67.46
H       4.31       3.70      70.42
H       6.89      10.50      73.70
H       9.41      12.39      68.75
H       4.21       7.16      65.71
H      15.03       6.90      12.02
H      13.62       9.32      15.67
H      17.05       3.52      14.62
H      10.84      11.25      12.27
H      15.34       7.98      16.09
H      15.01       9.09      11.69
H      11.23      12.00      14.90
H      16.21       6.38      17.74
H      15.84       3.42      12.59
H      14.26      10.73      10.02
H      18.81      17.69      39.94
H       1.30      17.83      43.62
H      14.87      17.40      42.47
H       4.40      19.17      40.22
H      19.56      17.02      44.04
H      20.73      16.63      39.67
H       4.80      18.59      42.86
H      17.74      17.10      45.68
H      15.37      18.68      40.46
H       2.25      16.45      38.00
H       2.81       2.54      71.45
H       1.68       1.07      72.85
H       4.22       4.71      74.79
H       9.00      14.62      76.92
H       9.97      16.15      73.09
H       8.97      14.24      72.09
H       7.99      12.70      75.89
H      10.59      15.76      79.41
H       2.01       2.16      81.63
H       1.85       2.16      79.25
H      10.90      15.75      81.77
H       3.05       3.19      76.23
H      11.18      13.95      15.83
H      10.48      15.70      17.19
H      12.38      11.72      19.20
H      18.46       2.69      21.06
H      19.55       0.95      17.35
H      18.49       2.71      16.22
H      17.37       4.47      19.88
H      18.82       0.82      23.73
H      11.28      14.93      25.93
H      11.34      15.09      23.55
H      18.77       0.65      26.11
H      11.67      13.52      20.61
H      16.67       0.18      43.83
H      18.53      35.12      45.20
H      14.12       0.29      47.19
H       3.28      34.74      49.05
H       1.21      34.73      45.36
H       3.26      34.69      44.21
H       5.37      34.71      47.85
H       1.51       0.38      51.69
H      17.54      34.98      53.98
H      17.61      34.81      51.60
H       1.42       0.55      54.07
H      16.04       0.10      48.61
H       6.54      16.78      39.55
H       8.64      16.57      38.47
H       4.55      16.05      35.91
H      14.14      16.35      35.15
H      11.70      17.07      38.53
H      13.60      17.58      39.79
H      16.08      16.85      36.45
H      12.60      15.71      32.28
H       8.47      16.13      29.76
H       8.39      16.12      32.13
H      12.67      15.72      29.89
H       6.67      15.84      34.80
H      11.83      14.27      11.60
H      10.96      16.22      10.56
H      13.47      12.99       7.94
H      18.57       3.58       7.31
H      19.08       1.03      10.65
H      17.65       2.39      11.91
H      17.13       4.98       8.61
H      19.87       2.69       4.51
H      11.47      16.53       1.83
H      11.52      16.38       4.20
H      19.75       2.85       2.13
H      12.61      14.95       6.86
H       2.24       3.36      67.29
H      21.22       1.62      66.35
H       2.47       5.28      63.55
H       8.03      14.40      63.28
H      10.02      16.22      66.53
H       9.60      14.35      67.85
H       7.59      12.48      64.64
H       7.84      16.08      60.45
H      20.15       1.85      57.66
H      20.43       1.95      60.02
H       7.56      16.00      58.08
H       1.13       3.54      62.58
H      17.13      27.33      67.89
H      15.76      24.54      71.35
H      20.24      28.77      71.21
H      15.54      21.39      67.80
H      16.10      26.63      71.91
H      15.38      26.08      67.44
H      14.44      21.25      70.39
H      17.02      28.06      73.68
H      19.55      29.94      68.74
H      14.34      24.73      65.68
H       4.89      24.46      12.01
H       3.48      26.88      15.66
H       6.91      21.08      14.61
H       0.71      28.82      12.27
H       5.20      25.54      16.08
H       4.87      26.65      11.69
H       1.10      29.56      14.89
H       6.07      23.94      17.74
H       5.69      20.98      12.59
H       4.12      28.29      10.01
H       8.67       0.13      39.94
H      11.44       0.27      43.62
H       4.73      34.96      42.47
H      14.54       1.61      40.22
H       9.42      34.58      44.04
H      10.59      34.19      39.67
H      14.94       1.03      42.86
H       7.60      34.66      45.68
H       5.23       1.12      40.46
H      12.39      34.01      38.00
H      12.90      20.14      71.43
H      11.76      18.67      72.83
H      14.38      22.27      74.76
H      19.11      32.17      76.90
H      20.16      33.66      73.07
H      19.15      31.76      72.07
H      18.11      30.26      75.86
H      20.43      33.40      79.40
H      12.47      19.67      81.59
H      12.17      19.69      79.22
H      20.60      33.41      81.77
H      13.21      20.76      76.21
H       1.04      31.51      15.83
H       0.34      33.26      17.19
H       2.24      29.28      19.20
H       8.32      20.25      21.05
H       9.41      18.51      17.35
H       8.34      20.27      16.21
H       7.23      22.04      19.87
H       8.68      18.38      23.73
H       1.14      32.49      25.93
H       1.20      32.65      23.55
H       8.63      18.21      26.10
H       1.53      31.07      20.61
H       6.53      17.74      43.83
H       8.39      17.56      45.20
H       3.98      17.85      47.19
H      13.42      17.18      49.05
H      11.35      17.17      45.36
H      13.40      17.13      44.21
H      15.51      17.15      47.86
H      11.65      17.94      51.69
H       7.40      17.42      53.98
H       7.47      17.25      51.60
H      11.56      18.11      54.07
H       5.90      17.66      48.61
H      16.68      34.34      39.55
H      18.78      34.13      38.48
H      14.69      33.61      35.91
H       4.00      33.91      35.15
H       1.56      34.63      38.53
H       3.46       0.02      39.79
H       5.94      34.41      36.45
H       2.46      33.27      32.28
H      18.61      33.69      29.76
H      18.53      33.68      32.13
H       2.53      33.28      29.89
H      16.81      33.40      34.80
H       1.73      31.85      11.60
H       0.85      33.79      10.55
H       3.31      30.54       7.92
H       8.45      21.15       7.31
H       8.91      18.57      10.62
H       7.48      19.93      11.88
H       7.01      22.55       8.61
H       9.85      20.26       4.47
H       1.13      34.10       1.78
H       1.26      33.92       4.15
H       9.81      20.40       2.09
H       2.44      32.49       6.85
H      12.38      20.92      67.28
H      11.08      19.18      66.34
H      12.60      22.84      63.54
H      18.17      31.96      63.28
H      20.16      33.78      66.53
H      19.74      31.90      67.85
H      17.73      30.04      64.63
H      17.98      33.64      60.45
H      10.01      19.41      57.67
H      10.29      19.51      60.02
H      17.70      33.56      58.08
H      11.26      21.10      62.58
N      10.46      16.75      77.05
N      21.12       0.01      74.96
N       1.57       1.10      76.88
N      11.82      17.64      83.20
N       7.97      12.19      73.28
N       4.35       4.67      72.19
N      19.68       0.38      21.34
N      10.02      17.00      19.29
N      10.53      15.83      21.21
N       9.89      16.52      27.55
N      17.11       4.62      17.20
N      12.23      11.57      16.59
N      20.95      34.91      49.34
N      19.89      34.93      47.30
N      18.62      35.10      49.23
N      19.65       0.32      55.55
N       5.62      34.79      45.17
N      14.07       0.41      44.57
N      11.56      16.20      34.61
N      10.31      16.37      36.54
N       9.25      15.99      34.53
N      10.69      15.97      28.30
N      16.18      17.59      38.96
N       4.22      16.69      38.50
N      19.95       1.44       6.75
N      10.30      17.79       8.65
N      11.21      17.13       6.63
N       0.15       1.06       0.44
N      16.40       4.65      11.09
N      13.08      12.33      10.51
N       9.04      16.73      62.66
N      20.14       0.19      64.51
N      20.14       1.28      62.47
N       8.64      17.55      56.35
N       8.25      12.09      67.12
N       3.32       5.37      66.07
N      20.52      34.32      77.04
N      10.95      17.60      74.97
N      11.79      18.65      76.86
N      21.57       0.14      83.23
N      18.11      29.73      73.26
N      14.49      22.23      72.16
N       9.54      17.94      21.34
N      20.16      34.56      19.29
N       0.39      33.39      21.21
N      20.03      34.08      27.55
N       6.97      22.19      17.19
N       2.09      29.13      16.59
N      10.81      17.35      49.34
N       9.75      17.37      47.30
N       8.48      17.54      49.23
N       9.51      17.88      55.55
N      15.76      17.23      45.17
N       3.93      17.97      44.57
N       1.43      33.76      34.61
N      20.45      33.93      36.55
N      19.39      33.55      34.53
N       0.55      33.53      28.30
N       6.04       0.03      38.96
N      14.36      34.25      38.50
N       9.86      19.02       6.74
N       0.16       0.22       8.66
N       1.02      34.67       6.62
N      10.51      18.59       0.43
N       6.26      22.21      11.08
N       2.95      29.89      10.50
N      19.19      34.29      62.66
N      10.00      17.75      64.51
N      10.00      18.84      62.47
N      18.78      35.11      56.35
N      18.39      29.65      67.11
N      13.46      22.93      66.05
O       9.35      11.87      71.06
O       4.50       4.16      68.11
O      16.15       3.71      14.95
O      11.58      11.82      12.58
O      15.40      18.17      42.78
O       4.52      18.25      40.55
O      19.50      29.40      71.05
O      14.65      21.72      68.08
O       6.01      21.28      14.94
O       1.45      29.40      12.57
O       5.26       0.61      42.78
O      14.66       0.69      40.55
