444

H      27.14       9.68      15.76
H       0.87       7.51      17.63
H      26.30       6.05      17.69
H      28.61      11.42      15.95
H       3.13      11.94      14.45
H       2.00       8.19      15.86
H      17.29      25.30      12.29
H      20.56      -4.84      13.15
H      16.66      -4.12      14.45
H      18.77      24.59      10.69
H      22.61      23.00      11.11
H      21.70      -6.70      13.52
H       7.59      14.49       0.57
H      10.86      -2.59      26.23
H       6.96      -1.80      24.96
H       9.06      13.44       1.98
H      12.92      14.51       3.16
H      12.01      -1.37      27.68
H      12.46       6.80      12.84
H      15.53       8.93      10.89
H      11.63      10.43      10.91
H      13.93       5.05      12.65
H      17.78       4.59      14.22
H      16.65       8.30      12.70
H       2.85      -8.74      16.32
H       5.68      21.41      15.41
H       1.78      20.70      14.12
H       4.33      -8.03      17.92
H       8.19      -6.47      17.56
H       6.83      23.28      15.09
H      22.45       2.07      28.11
H      25.31      19.08       2.42
H      21.41      18.35       3.72
H      23.91       3.08      26.68
H      27.74       1.94      25.46
H      26.44      17.88       0.95
H       6.09       6.30      16.02
H       4.79       6.87      14.95
H       5.18       7.71      16.47
H       7.89       5.92      12.74
H       6.71       5.51      13.95
H       8.42       5.45      14.37
H       6.87      12.17      13.99
H       8.51      12.28      14.53
H       7.24      12.08      15.73
H      10.96       9.60      14.80
H      10.06      10.85      15.61
H      10.40      11.00      13.87
H      10.12       6.77      13.12
H       5.14      11.13      15.02
H      25.75      -5.79      15.30
H      24.45      -7.01      15.24
H      24.90      -6.04      13.81
H      27.63      -8.44      17.17
H      26.41      -7.22      16.95
H      28.11      -6.77      16.79
H      26.35      22.48      11.14
H      27.99      22.90      10.77
H      26.71      24.03      10.35
H       1.08      24.51      12.93
H       0.17      24.59      11.46
H       0.55      23.00      12.18
H       0.50      -8.48      16.23
H      24.62      23.88      11.53
H      16.08      -0.32      26.02
H      14.77       0.24      27.08
H      15.22      -1.48      26.96
H      17.87       2.66      27.44
H      16.69       1.85      26.46
H      18.40       1.53      26.17
H      16.66      14.74       3.59
H      18.31      14.23       3.39
H      17.04      13.31       2.59
H      20.74      15.44       0.97
H      19.86      14.09       1.60
H      20.19      15.48       2.66
H      20.11       1.90      27.95
H      14.94      14.41       2.17
H      20.68      10.28      12.74
H      19.40       9.63      13.78
H      19.82       8.87      12.23
H      22.57      10.58      15.97
H      21.35      11.00      14.80
H      23.05      11.09      14.34
H      21.54       4.35      14.63
H      23.17       4.26      14.05
H      21.88       4.48      12.89
H      25.60       6.96      13.79
H      24.70       5.73      12.97
H      25.07       5.53      14.69
H      24.79       9.75      15.53
H      19.79       5.40      13.66
H      10.88      22.31      13.38
H       9.58      23.52      13.41
H      10.02      22.58      14.86
H      12.71      24.97      11.47
H      11.51      23.73      11.70
H      13.22      23.31      11.84
H      11.94      -5.96      17.53
H      13.58      -6.38      17.88
H      12.31      -7.52      18.30
H      16.01      -7.94      15.66
H      15.12      -8.04      17.15
H      15.47      -6.44      16.44
H      14.94      25.04      12.38
H      10.20      -7.35      17.13
H       1.14      16.87       2.60
H      29.19      16.29       1.54
H       0.29      18.02       1.63
H       3.03      13.92       1.28
H       1.82      14.72       2.22
H       3.52      15.10       2.52
H       2.13       1.61      24.98
H       3.77       2.15      25.13
H       2.51       3.09      25.89
H       6.24       1.16      27.62
H       5.32       2.45      26.92
H       5.70       1.02      25.94
H       5.24      14.72       0.76
H       0.42       2.00      26.40
H       1.26      15.24      11.44
H       0.18      14.57      12.64
H       1.85      13.98      12.49
H       2.59      18.63      11.69
H       1.23      17.58      11.37
H       2.90      16.97      11.18
H       0.62      15.35      17.36
H       0.99      17.01      17.77
H       2.25      15.75      17.92
H       4.39      18.42      16.50
H       3.27      17.85      17.68
H       2.86      19.29      16.77
H       4.68      18.12      13.32
H       2.53      13.90      15.73
H      20.84      18.74       9.72
H      19.74      20.10       9.67
H      21.39      20.30      10.30
H      22.23      17.27       6.69
H      20.86      17.51       7.74
H      22.51      17.66       8.39
H      20.19      23.80       6.64
H      20.62      23.33       5.00
H      21.84      24.10       6.06
H      24.05      21.54       4.50
H      22.93      22.86       4.40
H      22.54      21.36       3.58
H      24.32      18.94       6.33
H      22.07      23.14       8.75
H      11.14      15.47       7.54
H      10.04      14.77       6.37
H      11.70      15.19       5.91
H      12.47      13.55      10.34
H      11.11      14.36       9.60
H      12.78      14.82       9.16
H      10.44      10.29       4.67
H      10.81       9.10       5.89
H      12.06       9.61       4.73
H      14.22       9.48       7.74
H      13.08       8.75       6.66
H      12.70       8.82       8.36
H      14.54      12.37       9.06
H      12.35      12.43       4.23
H      16.03       1.23      17.18
H      14.92       1.87      16.00
H      16.56       2.52      16.14
H      17.51      -2.10      16.89
H      16.11      -1.11      17.24
H      17.75      -0.43      17.40
H      15.31       1.16      11.27
H      15.73      -0.48      10.84
H      16.94       0.81      10.69
H      19.20      -1.79      12.05
H      18.03      -1.26      10.88
H      17.70      -2.71      11.79
H      19.54      -1.51      15.20
H      17.23       2.63      12.91
H       6.39      -2.20      18.94
H       5.29      -3.56      18.97
H       6.95      -3.75      18.36
H       7.78      -0.75      21.98
H       6.40      -0.97      20.93
H       8.06      -1.14      20.29
H       5.72      -7.28      21.99
H       6.11      -6.81      23.63
H       7.35      -7.57      22.60
H       9.54      -5.04      24.18
H       8.39      -6.34      24.30
H       8.02      -4.82      25.09
H       9.85      -2.45      22.34
H       7.61      -6.60      19.91
H      25.85       1.00      21.08
H      24.78       1.70      22.28
H      26.45       1.28      22.70
H      27.10       2.92      18.25
H      25.76       2.12      19.03
H      27.44       1.64      19.41
H      25.28       6.17      23.99
H      25.62       7.36      22.75
H      26.90       6.85      23.88
H      28.97       6.96      20.81
H      27.86       7.71      21.91
H      27.44       7.63      20.22
H      29.23       4.07      19.47
H      27.17       4.02      24.37
C      28.84       8.77      16.62
C      27.46       8.94      16.39
C      26.53       7.95      16.77
C      26.96       6.81      17.48
C      28.32       6.67      17.81
C      29.24       7.63      17.37
C       0.45       9.65      16.02
C       0.16      11.00      15.70
C       1.14      11.86      15.15
C       2.42      11.33      14.88
C       2.75      10.00      15.19
C       1.75       9.17      15.70
C      19.20      -6.38      12.61
C      17.82      -6.68      12.60
C      16.89      -5.87      13.28
C      17.31      -4.67      13.90
C      18.66      -4.28      13.82
C      19.59      -5.14      13.19
C      19.94      25.57      12.18
C      19.66      24.58      11.19
C      20.64      23.66      10.76
C      21.91      23.69      11.38
C      22.23      24.66      12.35
C      21.46      -7.35      12.77
C       9.50      -2.30      27.84
C       8.12      -2.15      28.11
C       7.20      -1.95      27.06
C       7.62      -2.01      25.72
C       8.97      -2.28      25.42
C       9.89      -2.40      26.48
C      10.24      14.23       0.40
C       9.96      13.86       1.74
C      10.94      13.92       2.75
C      12.22      14.42       2.42
C      12.54      14.79       1.10
C      11.54      14.74       0.13
C      14.15       7.68      11.94
C      12.77       7.53      12.19
C      11.85       8.54      11.83
C      12.28       9.66      11.11
C      13.63       9.79      10.75
C      14.55       8.81      11.17
C      15.11       6.83      12.56
C      14.83       5.47      12.90
C      15.81       4.64      13.48
C      17.08       5.18      13.77
C      17.40       6.51      13.42
C      16.40       7.32      12.87
C       4.32      22.94      15.98
C       2.94      23.24      16.00
C       2.01      22.44      15.30
C       2.43      21.25      14.68
C       3.78      20.87      14.74
C       4.71      21.72      15.38
C       5.51      -9.01      16.43
C       5.23      -8.03      17.43
C       6.21      -7.12      17.87
C       7.48      -7.15      17.27
C       7.81      -8.11      16.29
C       6.81      -8.99      15.85
C      23.93      18.82       0.82
C      22.55      18.70       0.57
C      21.63      18.51       1.62
C      22.06      18.55       2.96
C      23.42      18.79       3.25
C      24.33      18.91       2.18
C      25.11       2.28      28.26
C      24.81       2.65      26.91
C      25.77       2.56      25.89
C      27.05       2.04      26.20
C      27.39       1.68      27.52
C      26.18      18.21       0.02
C       8.81       8.27      13.90
C       7.69       7.45      14.22
C       6.56       8.05      14.85
C       6.44       9.48      14.85
C       7.61      10.28      14.64
C       8.83       9.63      14.34
C       5.60       7.19      15.61
C       7.67       6.01      13.81
C       7.56      11.78      14.73
C      10.13      10.30      14.66
C       9.91       7.77      13.16
C       5.18      10.12      15.00
C      28.30      24.35      14.55
C      27.40      -7.88      15.12
C      26.26      -7.63      14.29
C      25.91      24.56      13.05
C      27.08      23.99      12.45
C      28.31      24.06      13.16
C      25.28      -6.57      14.69
C      27.38      -7.55      16.58
C      27.04      23.32      11.11
C       0.26      24.03      12.39
C       0.06      23.96      15.34
C      24.66      24.39      12.41
C      18.58      16.89       0.32
C      17.69       0.59      27.95
C      16.57      -0.28      28.12
C      16.22      15.42       0.84
C      17.40      15.19       1.63
C      18.62      15.80       1.24
C      15.60      -0.46      26.99
C      17.66       1.71      26.94
C      17.36      14.32       2.86
C      19.92      15.18       1.64
C      19.67      17.79       0.29
C      14.97      14.94       1.30
C      23.47       8.26      14.75
C      22.34       9.08      14.46
C      21.21       8.49      13.83
C      21.08       7.06      13.81
C      22.26       6.26      13.99
C      23.49       6.91      14.28
C      20.22       9.36      13.12
C      22.32      10.51      14.91
C      22.22       4.76      13.88
C      24.79       6.25      13.92
C      24.57       8.75      15.48
C      19.83       6.42      13.66
C      13.86      -7.80      14.07
C      12.51      24.42      13.52
C      11.38      24.16      14.36
C      11.49      -8.03      15.60
C      12.66      -7.46      16.19
C      13.89      -7.52      15.47
C      10.41      23.09      13.98
C      12.48      24.08      12.06
C      12.63      -6.80      17.54
C      15.19      -7.48      16.22
C      14.95      -7.41      13.27
C      10.24      -7.85      16.25
C       4.13      -0.34      28.33
C       2.79      15.97       0.71
C       1.65      16.79       0.50
C       1.73       1.05      27.75
C       2.89       1.27      26.94
C       4.13       0.71      27.36
C       0.67      17.00       1.63
C       2.78      14.88       1.74
C       2.83       2.07      25.67
C       5.42       1.36      26.93
C       5.25      -1.20      28.40
C       0.47       1.50      27.28
C       2.87      17.85      14.23
C       2.22      17.11      13.20
C       1.65      15.84      13.52
C       1.53      15.46      14.89
C       1.85      16.39      15.92
C       2.66      17.52      15.61
C       1.21      14.87      12.46
C       2.24      17.60      11.78
C       1.40      16.10      17.32
C       3.33      18.30      16.70
C       3.99      18.60      13.85
C       1.68      14.12      15.25
C      22.51      19.86       6.10
C      21.84      19.34       7.24
C      21.24      20.24       8.17
C      21.11      21.62       7.80
C      21.45      22.04       6.49
C      22.29      21.21       5.69
C      20.78      19.81       9.53
C      21.87      17.86       7.53
C      21.01      23.39       6.02
C      22.99      21.78       4.49
C      23.63      19.16       5.65
C      21.22      22.60       8.78
C      12.73      11.73       8.39
C      12.08      13.01       8.27
C      11.50      13.37       7.01
C      11.37      12.37       6.00
C      11.67      11.01       6.29
C      12.50      10.71       7.42
C      11.08      14.77       6.71
C      12.12      13.98       9.40
C      11.22       9.95       5.34
C      13.16       9.37       7.55
C      13.85      11.68       9.22
C      11.50      12.73       4.67
C      17.70      -1.29      14.34
C      17.05      -0.58      15.39
C      16.42       0.67      15.09
C      16.26       1.05      13.73
C      16.59       0.14      12.69
C      17.45      -0.96      12.98
C      15.96       1.61      16.17
C      17.12      -1.08      16.80
C      16.12       0.43      11.29
C      18.13      -1.71      11.87
C      18.85      -2.01      14.69
C      16.38       2.39      13.39
C       8.03      -3.34      22.57
C       7.37      -2.81      21.42
C       6.78      -3.71      20.49
C       6.64      -5.09      20.85
C       6.96      -5.52      22.16
C       7.80      -4.69      22.97
C       6.33      -3.27      19.12
C       7.41      -1.34      21.14
C       6.51      -6.87      22.62
C       8.47      -5.26      24.19
C       9.16      -2.66      23.02
C       6.77      -6.06      19.86
C      27.44       4.72      20.19
C      26.79       3.46      20.33
C      26.24       3.10      21.60
C      26.15       4.09      22.62
C      26.46       5.45      22.32
C      27.25       5.74      21.17
C      25.81       1.69      21.92
C      26.78       2.48      19.19
C      26.04       6.52      23.29
C      27.91       7.08      21.03
C      28.54       4.77      19.33
C      26.31       3.73      23.95
N       4.00       9.49      15.13
N       0.89      13.15      14.93
N      28.82       5.60      18.40
N      25.30       7.88      16.21
N      23.47      24.85      12.85
N      20.41      22.80       9.76
N      19.17      -3.23      14.43
N      15.68      -6.33      13.64
N      13.79      15.11       0.69
N      10.70      13.48       3.99
N       9.47      -2.27      24.21
N       5.98      -1.42      27.29
N      18.64       7.03      13.49
N      15.57       3.34      13.71
N      14.14      10.85      10.15
N      10.64       8.62      12.41
N       9.05      -8.31      15.80
N       5.97      -6.27      18.88
N       4.29      19.82      14.11
N       0.79      22.89      14.96
N      28.64       1.36      27.92
N      25.51       2.99      24.65
N      23.93      18.77       4.46
N      20.41      17.99       1.40
