36

N       9.37      11.61      16.76
N       9.51      12.05      18.93
N       8.32       6.97      15.13
N      10.15      16.60      16.39
N       9.00       8.08      22.19
H       7.87       8.11      18.26
H       7.43       6.14      16.82
H       9.16       7.98      13.54
H       9.66      10.05      14.84
H       9.56      14.91      19.25
H       9.91      17.20      18.36
H      10.34      15.81      14.49
H      10.04      13.43      15.20
H       8.11      11.20      21.27
H       7.97       9.58      23.17
H      10.02       6.67      21.06
H      10.33       8.18      19.09
H       9.70      12.55      19.80
C       9.19      10.44      17.45
C       9.29      10.69      18.83
C       9.57      12.58      17.66
C       8.87       9.23      16.69
C       8.21       8.12      17.23
C       7.96       7.02      16.43
C       8.92       8.05      14.59
C       9.20       9.19      15.32
C       9.79      13.96      17.29
C       9.76      15.05      18.19
C       9.94      16.34      17.69
C      10.18      15.56      15.53
C      10.01      14.24      15.93
C       9.22       9.82      20.00
C       8.58      10.22      21.18
C       8.49       9.32      22.24
C       9.64       7.69      21.06
C       9.79       8.53      19.97
