28

H       1.56       2.49       2.10
H       0.41       3.82       2.12
H      -0.08       3.40      -0.17
H       1.05       2.08      -0.17
H       1.54       4.99      -0.89
H       4.61       5.00      -1.14
H       4.86       5.49       0.56
H       3.56       6.22      -0.41
O       3.34       3.17       3.50
O       4.36       5.09       2.84
O       1.32       2.76      -2.70
O       3.35       3.72      -2.69
H       1.20       6.08       0.89
H       2.70       6.60       1.71
H       3.40       2.01       0.70
H       4.87       2.98       0.96
H       4.37       2.57      -0.69
H       1.35       5.97       2.65
C       3.18       4.16       0.22
C       2.45       4.42       1.60
C       1.27       3.41       1.58
C       0.95       3.14       0.09
C       1.96       3.98      -0.73
C       4.11       5.29      -0.21
C       4.00       2.85       0.30
C       2.21       3.44      -2.13
C       3.46       4.21       2.75
C       1.90       5.86       1.71
