28

H      21.55      13.91      17.92
H      22.69      12.57      17.90
H      23.19      13.00      20.19
H      22.05      14.32      20.18
H      21.56      11.41      20.91
H      18.50      11.40      21.16
H      18.24      10.91      19.46
H      19.54      10.18      20.43
H      19.70      14.38      19.32
H      18.24      13.42      19.06
H      18.74      13.82      20.71
H      21.76      10.42      17.36
H      21.90      10.32      19.12
H      20.40       9.80      18.31
C      19.92      12.24      19.80
C      20.65      11.98      18.42
C      21.83      12.99      18.44
C      22.16      13.25      19.93
C      21.15      12.41      20.74
C      18.99      11.10      20.23
C      19.11      13.55      19.72
C      20.89      12.95      22.15
C      19.64      12.19      17.27
C      21.20      10.54      18.30
O      19.76      13.22      16.52
O      18.74      11.30      17.17
O      21.79      13.63      22.72
O      19.76      12.68      22.71
