9

N      11.56       1.27      22.54
C      11.47      -0.42      26.44
Co      12.06       1.82      24.54
C      10.72       3.94      24.44
O      11.45       0.01      25.26
O      11.91       3.95      24.06
C      10.64       1.95      21.77
C      11.97       0.28      21.77
O      10.20       2.86      24.82
