12

C      13.58       6.05       5.89
N      16.87       5.59       5.26
O      16.85       8.28       4.27
C      18.08       5.51       4.58
Co      15.77       7.32       5.70
C      16.62       4.36       5.67
O      13.95       6.63       4.82
C      17.12       9.47       4.14
C      16.82       7.08       8.54
C      17.58       8.91       7.73
N      16.85       7.77       7.42
O      14.33       6.00       6.89
