12

Co       8.55      14.52      23.10
O       9.98      13.20      24.29
O      10.37      13.83      22.22
C       7.49      14.28      25.94
N       7.44      12.79      22.66
C      10.73      13.25      23.29
O       7.47      15.49      21.67
C       7.69      11.56      23.07
C       6.23      12.71      21.98
C       6.74      16.11      25.13
C       7.20      16.67      21.54
N       7.46      14.97      24.82
