22

La       8.14       4.75       2.99
La       4.15       4.46       3.42
C       6.30       5.00       0.62
C      10.55       8.22       4.29
C       9.87       7.02       3.80
C       6.85       2.96       5.06
C      10.28       2.31       4.48
C       6.56       6.88       6.22
C       5.89       6.00       5.26
C      10.83       5.77       1.02
O       5.86       4.18       1.53
O       7.27       5.79       0.86
O       8.94       7.13       2.95
O      10.20       5.85       4.28
O       7.77       3.79       5.34
O       6.20       3.03       3.93
O       9.84       2.88       3.39
O       3.28       2.82       5.13
O       4.96       5.24       5.66
O       6.22       6.04       4.00
O       3.79       6.32       1.70
O      10.19       4.73       1.48
