132

Cu       6.46       8.13       1.91
Cu       4.28       5.50       1.79
Cu       9.56       3.71       0.65
Cu       1.06       6.60       0.58
Cu       3.42       5.59       7.44
Cu      -1.44       0.94      12.94
Cu       0.74       3.58      13.06
Cu      -4.54       5.37      14.20
Cu       3.96       2.48      14.27
Cu       1.60       3.48       7.41
H       2.64      10.92       3.53
H       5.34       3.08       2.06
H       6.85       1.30       2.90
H       0.33      10.42       3.60
H       1.98       0.44       2.80
H      -0.74       7.92       5.84
H       0.94       7.24       7.54
H       3.36       5.48       4.61
H       1.77       6.09       2.84
H      -0.54       3.00       3.00
H       1.15       2.63       4.74
H      -1.05       4.83       7.53
H       7.94       5.33       5.86
H       0.51       9.01      14.54
H       6.38      10.41       2.04
H      -0.15       0.97       1.66
H       4.80      -0.47      14.35
H       2.37      -1.84      11.32
H      -0.32       5.99      12.78
H      -1.83       7.77      11.95
H       4.69      -1.35      11.25
H       3.04       8.64      12.05
H       5.76       1.15       9.01
H       4.08       1.84       7.31
H       1.66       3.60      10.24
H       3.25       2.99      12.01
H       5.56       6.07      11.85
H       3.87       6.44      10.11
H       6.07       4.25       7.32
H      -2.92       3.74       8.99
H       4.51       0.07       0.31
H      -1.36      -1.33      12.81
H       5.17       8.10      13.19
H       0.21       9.54       0.50
C       2.59       2.91       1.87
C       3.51       1.95       2.39
C       4.92       2.16       2.44
C       5.77       1.19       2.88
C       3.91      -0.29       3.28
C       3.04       0.67       2.83
C      -0.63       7.35       3.16
C       0.36       7.05       4.17
C       0.16       7.38       5.54
C       1.09       7.00       6.48
C       2.44       6.01       4.85
C       1.55       6.36       3.87
C       7.95       4.56       3.23
C      -1.82       4.24       4.25
C      -0.68       3.45       3.98
C       0.27       3.23       4.95
C      -0.97       4.46       6.51
C      -1.95       4.72       5.58
C       3.96       9.50       1.08
C       4.55      10.82       0.92
C       7.18       0.13       0.19
C       7.77       1.38       0.05
C       9.62       0.70       1.28
C       5.81      11.14       1.47
C       2.43       6.16      12.98
C       1.51       7.13      12.45
C       0.10       6.92      12.41
C      -0.75       7.89      11.97
C       1.11       9.37      11.57
C       1.98       8.41      12.02
C       5.65       1.73      11.69
C       4.66       2.02      10.68
C       4.86       1.69       9.31
C       3.93       2.07       8.37
C       2.58       3.06      10.00
C       3.47       2.71      10.98
C      -2.94       4.51      11.62
C       6.84       4.83      10.60
C       5.70       5.62      10.87
C       4.75       5.84       9.90
C       5.98       4.61       8.34
C       6.97       4.35       9.27
C       1.05      -0.43      13.77
C       0.47      -1.75      13.93
C      -2.16       8.95      14.66
C      -2.75       7.70      14.80
C      -4.60       8.37      13.57
C      -0.79      -2.07      13.38
N       4.65       8.42       1.53
N       3.77       7.38       1.49
N       2.61       7.84       1.03
N       2.69       9.16       0.78
N       8.98       1.69       0.59
N       2.82       4.23       1.56
N       1.63       4.70       1.07
N       0.75       3.70       1.09
N       1.31       2.59       1.57
N       5.27      -0.03       3.32
N      -1.65       7.51       1.27
N      -2.48       7.87       2.26
N      -1.88       7.80       3.45
N      -0.48       7.17       1.81
N       2.22       6.30       6.18
N       8.16       4.48       1.88
N       7.01       4.89       1.32
N       6.14       5.20       2.30
N       6.71       5.01       3.50
N       0.16       3.73       6.22
N       0.37       0.66      13.32
N       1.24       1.69      13.36
N       2.41       1.23      13.82
N       2.32      -0.08      14.07
N      -3.96       7.39      14.26
N       2.20       4.84      13.29
N       3.39       4.37      13.78
N       4.27       5.37      13.76
N       3.71       6.48      13.28
N      -0.25       9.10      11.53
N       6.67       1.56      13.58
N       7.50       1.20      12.59
N       6.89       1.28      11.40
N       5.49       1.90      13.04
N       2.79       2.78       8.67
N      -3.14       4.60      12.97
N      -1.99       4.18      13.53
N      -1.13       3.87      12.55
N      -1.69       4.06      11.35
N       4.85       5.34       8.62
