410

C      10.44      38.96      50.54
C      10.15      37.90       0.00
C      10.75      36.72      51.57
C      10.49      36.07      50.33
C      10.18      36.88      49.20
C      10.15      38.29      49.32
C      10.45      40.41      50.64
C       9.25       0.28       0.22
C       9.30       1.69       0.34
C      10.19       2.71      50.85
C      10.41       2.07      49.61
C      10.37       0.65      49.53
C       9.88       8.85      35.12
C      10.32       8.89      36.47
C      10.23       7.76      37.32
C       9.71       6.53      36.83
C       9.27       6.48      35.48
C       9.32       7.63      34.66
C       9.99       9.99      34.24
C       9.94      11.33      34.72
C      10.05      12.44      33.85
C      10.20      12.25      32.45
C      10.22      10.92      31.94
C      10.16       9.83      32.84
C       9.86      29.73      14.42
C      10.27      29.69      13.06
C      10.18      30.82      12.21
C       9.69      32.05      12.71
C       9.29      32.11      14.07
C       9.34      30.96      14.89
C       9.97      28.59      15.30
C       9.89      27.25      14.82
C      10.00      26.14      15.69
C      10.19      26.33      17.09
C      10.24      27.66      17.59
C      10.18      28.75      16.70
C       1.03      29.54      34.81
C      10.43      29.82      36.07
C       0.87      30.95      36.83
C       1.87      31.82      36.33
C       2.48      31.51      35.09
C       2.07      30.38      34.35
C      10.57      28.45      33.97
C      10.36      27.14      34.48
C      10.07      26.06      33.62
C       9.95      26.27      32.21
C      10.18      27.57      31.69
C      10.44      28.64      32.57
C       0.67       9.03      14.70
C      10.03       8.74      13.46
C       0.46       7.62      12.68
C       1.49       6.76      13.14
C       2.14       7.08      14.36
C       1.74       8.20      15.11
C      10.22      10.11      15.55
C       9.96      11.41      15.05
C       9.66      12.48      15.92
C       9.56      12.26      17.33
C       9.84      10.97      17.85
C      10.13       9.91      16.95
C       1.45       3.62      46.49
C       2.67       4.19      46.05
C       2.66       5.10      44.96
C       1.46       5.44      44.29
C      10.22       4.88      44.76
C      10.21       3.98      45.85
C       1.47       6.27      43.13
C       2.23       5.92      41.98
C       2.13       6.72      40.81
C       1.29       7.85      40.76
C       0.56       8.20      41.91
C       0.65       7.42      43.08
C       1.05       8.50      39.55
C       1.42       2.67      47.51
C       1.24      34.93       3.01
C       2.47      34.33       3.42
C       2.46      33.42       4.51
C       1.28      33.11       5.21
C      10.04      33.70       4.77
C      10.02      34.59       3.69
C       1.30      32.28       6.37
C       2.10      32.61       7.51
C       2.01      31.82       8.67
C       1.15      30.70       8.75
C       0.38      30.37       7.61
C       0.46      31.15       6.45
C       0.93      30.06       9.96
C       1.21      35.87       1.99
C       9.09      35.08      46.25
C       7.89      34.81      45.52
C       7.96      34.11      44.29
C       9.19      33.66      43.76
C      10.37      33.93      44.48
C      10.32      34.63      45.70
C       9.24      32.91      42.54
C       8.75      33.43      41.31
C       8.86      32.66      40.13
C       9.45      31.38      40.13
C       9.91      30.86      41.36
C       9.81      31.62      42.54
C       9.66      30.67      38.96
C       9.05      35.68      47.51
C       8.32       3.50       3.32
C       7.15       3.80       4.08
C       7.27       4.50       5.31
C       8.52       4.92       5.81
C       9.67       4.62       5.05
C       9.58       3.92       3.84
C       8.61       5.66       7.03
C       8.14       5.15       8.27
C       8.31       5.91       9.45
C       8.92       7.19       9.43
C       9.36       7.70       8.19
C       9.21       6.94       7.01
C       9.17       7.89      10.60
C       8.24       2.91       2.06
C       0.55      10.06      21.30
C       1.73       9.97      22.10
C       1.62       9.98      23.51
C       0.37      10.08      24.16
C       9.18      10.17      23.35
C       9.27      10.16      21.95
C      10.25      10.06      25.58
C       0.98      10.98      26.40
C       0.88      10.89      27.81
C      10.06       9.89      28.44
C       9.37       8.98      27.60
C       9.46       9.06      26.20
C       9.93       9.79      29.82
C       0.62      10.01      19.91
C       0.80      28.49      28.22
C       1.96      28.56      27.41
C       1.83      28.56      26.00
C       0.56      28.47      25.37
C       9.39      28.40      26.20
C       9.50      28.40      27.60
C      10.42      28.50      23.95
C       1.12      27.57      23.11
C       0.99      27.67      21.70
C      10.17      28.68      21.10
C       9.51      29.60      21.95
C       9.63      29.51      23.35
C      10.02      28.79      19.72
C       0.90      28.53      29.61
C       8.97      36.70      33.92
C       7.79      37.45      33.68
C       7.87      38.87      33.63
C       9.10      39.54      33.83
C      10.26      38.77      34.06
C      10.20      37.37      34.11
C       8.79       0.38      33.84
C       8.04       1.15      34.78
C       8.25       2.55      34.85
C       9.19       3.21      34.02
C       9.90       2.43      33.08
C       9.70       1.05      32.99
C       9.59       4.52      34.27
C       8.94      35.40      33.99
C       8.43       1.89      15.65
C       7.24       1.16      15.92
C       7.67      40.32      15.97
C       8.88      39.63      15.75
C      10.05      40.38      15.48
C       9.64       1.20      15.44
C       8.93      38.21      15.73
C       8.15      37.45      14.81
C       8.33      36.05      14.73
C       9.28      35.38      15.54
C      10.02      36.14      16.48
C       9.84      37.53      16.57
C       9.65      34.06      15.30
C       8.43       3.19      15.58
C       0.68      22.75      35.06
C       1.66      21.81      34.67
C       1.39      20.42      34.82
C      10.14      19.95      35.34
C       9.18      20.91      35.76
C       9.43      22.29      35.63
C       9.83      18.56      35.32
C       0.71      17.58      35.90
C      10.40      16.20      35.70
C       9.30      15.77      34.92
C       8.44      16.76      34.39
C       8.70      18.13      34.58
C       9.09      14.44      34.60
C       0.87      24.09      34.77
C      10.22      15.81      14.51
C       1.30      16.71      14.81
C       1.08      18.11      14.66
C       9.81      18.62      14.22
C       8.80      17.70      13.88
C       9.00      16.31      14.02
C       9.56      20.03      14.26
C       0.44      20.98      13.63
C      10.18      22.36      13.83
C       9.13      22.83      14.64
C       8.27      21.87      15.23
C       8.49      20.50      15.04
C       8.97      24.17      14.96
C       0.40      14.46      14.84
H       0.41      38.33       0.90
H       0.61       0.23      48.62
H       9.62       4.30       0.16
H      10.53       4.63      50.20
H      10.45      34.26      49.37
H      10.81      34.15      50.97
H       9.90      38.83      48.49
H       9.38      40.32       1.06
H       0.80       9.73      36.84
H      10.27       8.89      32.45
H      10.33      14.23      31.93
H      10.44      13.21      30.65
H       9.25       4.58      37.31
H       9.91       5.43      38.55
H       8.95       7.55      33.71
H       9.80      11.51      35.71
H       0.72      28.83      12.68
H      10.31      29.69      17.08
H      10.28      24.34      17.60
H       0.47      25.36      18.88
H       9.26      34.01      12.24
H       9.87      33.15      10.98
H       8.99      31.05      15.85
H       9.72      27.07      13.83
H       9.67      29.23      36.42
H      10.56      29.58      32.18
H       9.47      24.33      31.71
H       9.55      25.35      30.42
H       2.95      33.54      36.68
H       1.87      33.18      37.87
H       2.54      30.18      33.47
H      10.47      26.96      35.48
H       9.25       9.32      13.13
H       0.32       8.98      17.33
H       8.98      14.16      17.85
H       9.12      13.14      19.13
H       2.58       5.06      12.75
H       1.45       5.40      11.60
H       2.24       8.41      15.98
H      10.04      11.59      14.05
H       9.33       5.08      44.29
H       9.32       3.56      46.13
H       2.65       6.43      39.97
H       9.88       9.00      41.90
H      10.05       7.68      43.89
H       3.54       5.50      44.65
H       1.01       9.49      39.49
H       2.07       1.92      47.49
H       9.16      33.51       5.27
H       9.13      35.02       3.42
H       2.56      32.09       9.50
H       9.69      29.59       7.65
H       9.83      30.89       5.65
H       3.35      33.00       4.80
H       0.86      29.07      10.02
H       1.88      36.61       2.00
H       1.31      33.62      44.13
H       1.23      34.78      46.21
H       8.54      33.07      39.24
H      10.36      29.94      41.40
H      10.17      31.21      43.41
H       7.09      33.90      43.80
H       9.46      29.70      38.92
H       8.27      35.49      48.10
H       0.63       4.91       5.38
H       0.47       3.76       3.31
H       7.99       5.52      10.34
H       9.82       8.61       8.14
H       9.56       7.34       6.13
H       6.41       4.72       5.83
H       8.99       8.87      10.64
H       7.45       3.11       1.49
H       8.25      10.24      23.79
H       8.40      10.21      21.41
H       1.39      11.57      28.38
H       8.79       8.24      28.01
H       8.96       8.37      25.64
H       2.47       9.89      24.07
H       9.45       9.01      30.21
H       1.32       9.44      19.49
H       8.45      28.33      25.78
H       8.65      28.36      28.16
H       1.48      26.99      21.12
H       8.93      30.35      21.56
H       9.15      30.20      23.92
H       2.67      28.64      25.42
H       9.55      29.59      19.34
H       1.60      29.10      30.02
H       1.19      39.23      34.24
H       1.09      36.85      34.30
H       7.76       3.07      35.58
H       0.65       2.86      32.48
H      10.26       0.51      32.32
H       7.02      39.41      33.45
H       0.57       4.77      34.07
H       8.93      34.48      34.04
H       0.97      39.91      15.30
H       0.54       1.71      15.23
H       7.81      35.53      14.02
H       0.77      35.70      17.06
H      10.42      38.06      17.23
H       6.82      39.80      16.16
H       0.62      33.78      15.51
H       8.42       4.12      15.54
H       8.27      20.61      36.13
H       8.70      22.95      35.90
H       1.07      15.51      36.10
H       7.64      16.49      33.80
H       8.09      18.81      34.12
H       2.08      19.75      34.47
H       8.17      14.14      34.36
H       0.90      24.33      33.80
H       7.88      18.03      13.57
H       8.22      15.68      13.81
H       0.85      23.04      13.38
H       7.51      22.17      15.85
H       7.88      19.84      15.54
H       1.82      18.75      14.96
H       8.06      24.51      15.21
H       0.36      14.30      15.81
N      10.57      34.71      50.22
N      10.30       4.07      50.96
N       0.63       2.81      48.51
N       9.20       2.21       1.56
N      10.04      36.36      47.98
N       0.40      35.75       1.01
N       9.63       5.42      37.62
N      10.32      13.32      31.61
N      10.29      10.74      30.62
N      10.09      13.66      34.36
N       8.87       5.32      34.97
N       0.68       7.76      38.57
N       9.61      33.16      11.92
N      10.31      25.26      17.93
N      10.35      27.84      18.91
N       9.99      24.92      15.18
N       8.92      33.28      14.58
N       0.60      30.80      10.95
N       2.26      32.94      37.02
N       9.65      25.23      31.38
N      10.17      27.75      30.36
N       9.90      24.75      34.13
N       3.39      32.22      34.59
N      10.32      31.24      38.02
N       1.88       5.66      12.43
N       9.21      13.28      18.17
N       9.88      10.78      19.17
N       9.42      13.78      15.41
N       3.08       6.38      14.82
N       9.86       7.32      11.51
N       3.01       4.73      41.97
N       3.88       3.85      46.70
N       2.90      33.78       7.49
N       3.67      34.65       2.74
N       8.20      34.74      41.28
N       6.65      35.24      46.04
N       7.57       3.85       8.31
N       5.88       3.40       3.59
N       1.74      12.02      25.80
N       3.00       9.88      21.47
N       1.88      26.52      23.70
N       3.25      28.64      28.00
N       7.18       0.50      35.69
N       6.55      36.79      33.50
N       7.27      38.11      13.91
N       6.02       1.85      16.12
N       1.82      17.99      36.68
N       2.88      22.25      34.10
N       1.50      20.53      12.79
N       2.54      16.22      15.31
O       4.22       4.98      41.75
O       4.69       3.30      45.90
O       2.60       3.91      41.12
O       4.43       4.86      47.20
O       4.11      33.51       7.68
O       4.50      35.18       3.52
O       2.53      34.61       8.35
O       4.18      33.63       2.22
O       7.01      34.73      40.88
O       5.88      34.26      46.26
O       8.87      35.50      40.54
O       6.07      36.03      45.26
O       6.39       3.89       8.75
O       5.14       4.39       3.39
O       8.24       3.08       9.04
O       5.31       2.61       4.39
O       2.95      11.96      26.14
O       3.73      10.85      21.78
O       1.30      13.15      26.10
O       3.59       8.81      21.78
O       3.08      26.57      23.33
O       3.96      27.66      27.68
O       1.41      25.39      23.40
O       3.84      29.70      27.69
O       6.00       0.92      35.58
O       6.06      37.03      32.36
O       7.55       0.66      36.88
O       5.72      37.13      34.38
O       6.09      37.71      14.05
O       5.55       1.61      17.26
O       7.62      37.95      12.71
O       5.16       1.52      15.26
O       2.91      17.57      36.20
O       3.87      21.88      34.79
O       1.72      17.58      37.86
O       3.02      21.83      32.93
O       2.62      20.92      13.21
O       3.49      16.54      14.56
O       1.35      20.93      11.61
O       2.77      16.65      16.47
