13

C       0.55      13.55       4.96
O      -2.23      14.59       7.25
O      -2.82      12.48       6.64
Zn      -1.08      11.50       6.54
Zn      -0.38      14.15       7.48
O      -0.14      12.49       5.00
O       0.79      14.31       5.98
O       0.15      11.75       8.18
O       0.34      13.73       9.23
C       0.49      12.45       9.18
O      -1.04       9.64       6.09
C      -3.09      13.69       6.91
C      -1.65       9.03       7.08
