44

O       7.46       5.86      21.93
O       8.63       7.17      23.34
Nd       7.36       9.02      24.05
Nd       5.51       6.92      21.23
O       5.08       7.22      18.87
O       9.51       9.12      25.15
Nd       9.42       8.39      27.65
O      10.95      10.20      26.45
C       4.30       9.83      22.64
Nd       6.33       4.93      17.64
O       4.15       5.91      17.31
O       8.55       4.13      16.81
O       7.55       2.89      18.37
C       8.50       6.12      22.64
C       7.71       9.76      21.17
C      10.56       9.90      25.30
C       4.19       7.00      17.94
C       9.64       2.09      17.47
C       8.52       3.09      17.56
C       4.79       6.48      24.10
C       4.97       3.63      19.98
C       7.11      10.30      27.32
O       5.80       7.28      24.04
O       4.30       5.97      23.04
C      12.60       5.45      27.81
C      11.49       6.43      27.73
O       7.49       6.91      28.50
O       8.64       8.26      29.86
O       6.45       5.68      15.42
O       7.58       7.05      16.78
C       7.08       6.78      30.90
C       7.76       7.32      29.68
O       7.04       8.66      21.23
O       8.15      10.31      22.24
O       5.63       4.76      20.12
O       4.72       3.20      18.82
O       6.99       9.38      26.40
O       8.19      10.45      27.96
C       7.70       7.43      14.38
O      11.56       7.43      26.92
O      10.46       6.29      28.48
C       7.23       6.71      15.61
O       5.32      10.05      23.39
O       4.19       8.80      21.88
