462

C      21.14      27.58       4.21
C      20.02      28.39       4.21
C      19.66      28.64       2.88
C      21.50      27.33       2.88
C      22.62      26.54       2.48
C      22.97      26.29       1.13
C       3.19      -1.69      47.35
C       4.27      -2.47      47.79
C      24.06      25.53       0.69
C       2.83      -1.44      46.00
C       1.71      -0.65      45.59
C      -0.13       0.66      45.59
C       0.22       0.39      44.27
C       1.36      -0.39      44.27
C      -1.25       1.44      46.00
C      -1.61       1.70      47.35
C      18.19      29.69       1.12
C      17.10      30.45       0.69
C      -2.68       2.47      47.79
C      18.54      29.43       2.48
C      17.72      30.01       3.50
C      17.79      31.39       3.79
C      16.97      31.97       4.78
C      16.07      31.17       5.53
C      16.01      29.79       5.24
C      16.82      29.22       4.24
C      15.24      31.76       6.54
C      15.13      31.17       7.82
C      14.32      31.75       8.82
C      13.58      32.93       8.57
C      13.69      33.51       7.29
C      14.51      32.94       6.29
C      -2.07       2.02      44.98
C      -1.62       3.13      44.23
C      -2.43       3.70      43.22
C      -3.72       3.19      42.95
C      -4.17       2.09      43.71
C      -3.35       1.50      44.70
C      -4.54       3.78      41.94
C      -4.03       4.07      40.65
C      -4.85       4.64      39.65
C      -6.20       4.95      39.91
C      -6.71       4.67      41.20
C      -5.90       4.09      42.19
C       3.65      -2.02      44.98
C       3.20      -3.13      44.23
C       4.01      -3.70      43.22
C       5.30      -3.19      42.95
C       5.75      -2.08      43.71
C       4.94      -1.50      44.70
C       6.13      -3.77      41.94
C       7.49      -4.08      42.19
C       8.30      -4.67      41.20
C       7.79      -4.95      39.91
C       6.43      -4.63      39.65
C       5.61      -4.07      40.65
C      23.44      25.96       3.50
C      23.37      24.58       3.79
C      24.34      26.76       4.24
C      25.15      26.19       5.24
C      25.09      24.80       5.53
C      24.19      24.01       4.78
C      25.92      24.22       6.54
C      26.65      23.03       6.30
C      27.47      22.46       7.29
C      27.58      23.05       8.57
C      26.83      24.23       8.82
C      26.03      24.81       7.82
C       1.35      38.54      21.78
C       0.23      38.13      22.48
C      -0.13      39.16      23.36
C       1.71      39.81      22.23
C       2.83      40.55      21.75
C       3.19      41.85      22.20
C      22.98     -12.18      23.33
C      24.06     -12.16      22.44
C       4.27      42.61      21.76
C      22.62     -11.13      24.23
C      21.50     -11.17      25.11
C      19.66     -11.83      26.24
C      20.01     -10.55      26.68
C      21.15     -10.16      26.00
C      18.54     -12.57      26.73
C      18.18     -13.87      26.27
C      -1.60      40.16      25.15
C      -2.69      40.15      26.02
C      17.11     -14.63      26.72
C      -1.25      39.11      24.25
C      -2.07      37.94      24.24
C      -2.00      37.00      25.29
C      -2.82      35.85      25.30
C      -3.72      35.60      24.23
C      -3.78      36.54      23.18
C      -2.97      37.70      23.18
C      -4.55      34.43      24.23
C      -4.66      33.62      23.08
C      -5.47      32.46      23.08
C      -6.21      32.09      24.23
C      -6.10      32.91      25.38
C      -5.28      34.05      25.38
C      17.72     -11.98      27.74
C      18.17     -11.89      29.07
C      17.36     -11.30      30.07
C      16.07     -10.81      29.76
C      15.62     -10.91      28.42
C      16.44     -11.48      27.42
C      15.25     -10.22      30.78
C      15.76      -9.25      31.67
C      14.94      -8.67      32.66
C      13.59      -9.05      32.81
C      13.08     -10.03      31.92
C      13.89     -10.59      30.92
C      23.44      -9.96      24.23
C      22.99      -8.75      23.65
C      23.80      -7.60      23.66
C      25.09      -7.62      24.24
C      25.54      -8.83      24.81
C      24.73      -9.98      24.82
C      25.92      -6.45      24.24
C      27.28      -6.51      23.84
C      28.09      -5.36      23.83
C      27.58      -4.10      24.23
C      26.22      -4.04      24.64
C      25.40      -5.19      24.63
C       3.65      39.96      20.73
C       3.58      40.40      19.39
C       4.55      38.92      21.05
C       5.36      38.34      20.06
C       5.30      38.79      18.71
C       4.40      39.83      18.40
C       6.13      38.20      17.70
C       6.86      39.01      16.80
C       7.68      38.43      15.81
C       7.79      37.02      15.67
C       7.04      36.22      16.57
C       6.24      36.79      17.57
C     -18.44      17.84      22.48
C      39.81      17.44      21.78
C      39.45      16.16      22.23
C     -18.08      16.82      23.36
C     -16.96      16.86      24.25
C     -16.60      15.82      25.14
C     -16.60      13.87      26.27
C     -15.52      14.63      26.72
C     -15.52      15.82      26.02
C     -16.96      12.57      26.72
C     -18.07      11.83      26.24
C      39.45      11.17      25.11
C      39.80      10.15      26.00
C     -18.43      10.55      26.68
C      38.33      11.13      24.22
C      37.97      12.17      23.33
C      37.98      14.12      22.20
C      36.89      13.36      21.76
C      36.90      12.16      22.44
C      38.33      15.42      21.75
C      37.51      16.01      20.73
C      37.58      15.57      19.39
C      36.76      16.14      18.40
C      35.86      17.19      18.71
C      35.80      17.63      20.06
C      36.60      17.05      21.05
C      35.03      17.77      17.70
C      34.92      19.18      17.57
C      34.11      19.75      16.57
C      33.37      18.95      15.67
C      33.48      17.54      15.81
C      34.30      16.97      16.80
C      37.51       9.95      24.23
C      37.96       8.75      23.64
C      37.15       7.60      23.66
C      35.86       7.61      24.23
C      35.41       8.83      24.81
C      36.22       9.97      24.82
C      35.03       6.44      24.23
C      35.55       5.18      24.62
C      34.73       4.04      24.63
C      33.38       4.10      24.23
C      32.87       5.36      23.83
C      33.68       6.51      23.84
C     -16.14      11.98      27.73
C     -16.59      11.88      29.07
C     -15.78      11.30      30.06
C     -14.49      10.80      29.76
C     -14.04      10.91      28.42
C     -14.85      11.48      27.42
C     -13.66      10.22      30.77
C     -12.30      10.59      30.91
C     -11.49      10.03      31.92
C     -12.00       9.05      32.81
C     -13.36       8.67      32.66
C     -14.18       9.25      31.67
C     -16.14      18.04      24.24
C     -16.21      18.97      25.29
C     -15.24      18.28      23.18
C     -14.43      19.44      23.17
C     -14.49      20.38      24.23
C     -15.39      20.12      25.29
C     -13.66      21.54      24.23
C     -12.93      21.92      25.38
C     -12.11      23.07      25.38
C     -12.00      23.89      24.23
C     -12.75      23.51      23.08
C     -13.55      22.36      23.08
C       8.61      36.44      14.66
C       9.94      36.88      14.45
C      10.76      36.30      13.46
C      10.27      35.26      12.63
C       8.94      34.83      12.83
C       8.13      35.40      13.84
C      11.10      34.68      11.62
C      12.43      34.29      11.90
C      13.24      33.70      10.90
C      12.76      33.51       9.59
C      11.43      33.91       9.30
C      10.61      34.48      10.30
C      12.76      -8.47      33.82
C      11.94      -9.27      34.65
C      11.13      -8.69      35.65
C      11.10      -7.29      35.85
C      11.92      -6.49      35.02
C      12.74      -7.07      34.03
C      10.27      -6.71      36.86
C      10.24      -7.23      38.18
C       9.44      -6.65      39.18
C       8.61      -5.54      38.90
C       8.64      -5.02      37.58
C       9.46      -5.59      36.59
C     -11.18      25.06      24.23
C      -9.85      25.01      24.71
C      -9.03      26.16      24.70
C      -9.52      27.40      24.22
C     -10.85      27.45      23.74
C     -11.66      26.29      23.74
C      -8.69      28.57      24.22
C      -7.36      28.53      23.75
C      -6.55      29.68      23.74
C      -7.03      30.92      24.23
C      -8.36      30.96      24.71
C      -9.18      29.81      24.70
C      32.55       2.93      24.23
C      31.73       2.61      23.12
C      30.92       1.46      23.12
C      30.89       0.58      24.23
C      31.71       0.90      25.34
C      32.53       2.05      25.34
C      30.06      -0.59      24.23
C      30.03      -1.46      23.12
C      29.23      -2.62      23.12
C      28.40      -2.93      24.23
C      28.43      -2.05      25.34
C      29.25      -0.91      25.34
C      28.40      22.47       9.59
C      29.73      22.06       9.31
C      30.55      21.50      10.30
C      30.06      21.29      11.62
C      28.73      21.69      11.90
C      27.92      22.27      10.90
C      30.89      20.71      12.63
C      32.22      21.14      12.83
C      33.03      20.58      13.84
C      32.55      19.53      14.66
C      31.22      19.09      14.45
C      30.40      19.67      13.47
C      -7.03       5.54      38.89
C      -7.85       6.65      39.18
C      -8.66       7.23      38.18
C      -8.69       6.71      36.86
C      -7.87       5.59      36.58
C      -7.05       5.02      37.58
C      -9.52       7.29      35.85
C      -9.55       8.69      35.65
C     -10.35       9.27      34.65
C     -11.18       8.47      33.82
C     -11.15       7.07      34.03
C     -10.33       6.49      35.02
H      26.89      24.69       9.73
H      25.50      25.66       8.05
H      27.98      21.60       7.07
H      26.61      22.58       5.38
H      24.10      23.01       4.96
H      22.72      23.98       3.27
H      25.80      26.79       5.75
H      24.42      27.76       4.05
H      21.60      27.25       5.06
H      19.56      28.73       5.06
H      20.58      27.99       1.17
H       0.79       0.00      47.31
H      24.75      25.04       1.27
H       4.95      -2.97      47.21
H       2.28      -3.53      44.41
H       3.65      -4.51      42.71
H       5.29      -0.70      45.23
H       6.67      -1.67      43.54
H       1.83      -0.71      43.42
H      -0.25       0.72      43.42
H      16.41      30.93       1.27
H      -3.37       2.97      47.21
H      -0.69       3.54      44.41
H      -2.07       4.51      42.71
H      -3.71       0.70      45.23
H      -5.09       1.67      43.53
H      -6.31       3.91      43.11
H      -7.69       4.87      41.42
H      -4.43       4.84      38.74
H      -3.06       3.85      40.42
H      16.74      28.21       4.05
H      15.36      29.18       5.75
H      14.55      33.39       5.38
H      13.18      34.37       7.07
H      14.27      31.28       9.73
H      15.65      30.32       8.05
H      17.06      32.97       4.96
H      18.44      31.99       3.27
H       7.90      -3.90      43.11
H       9.28      -4.87      41.42
H       4.64      -3.85      40.42
H       6.01      -4.83      38.74
H       7.10      35.20      16.52
H       5.71      36.17      18.19
H       8.19      39.05      15.17
H       6.82      40.03      16.87
H       4.31      40.17      17.44
H       2.93      41.15      19.13
H       6.01      37.60      20.33
H       4.63      38.59      22.02
H       1.81      37.97      21.07
H      -0.23      37.23      22.35
H       0.79      40.96      23.65
H      20.58     -12.98      24.82
H       4.96      42.35      21.05
H      24.74     -11.42      22.30
H      22.07      -8.71      23.21
H      23.44      -6.75      23.21
H      25.08     -10.83      25.26
H      26.46      -8.88      25.26
H      21.62      -9.26      26.14
H      19.54      -9.98      27.39
H      -3.38      39.41      26.15
H      16.42     -14.38      27.44
H      19.09     -12.24      29.33
H      17.72     -11.26      31.02
H      16.08     -11.53      26.47
H      14.70     -10.55      28.16
H      13.48     -11.30      30.30
H      12.10     -10.32      31.98
H      15.36      -7.98      33.29
H      16.73      -8.94      31.60
H      -3.05      38.36      22.41
H      -4.43      36.40      22.40
H      -5.24      34.62      26.23
H      -6.61      32.67      26.23
H      -5.52      31.90      22.22
H      -4.13      33.84      22.23
H      -2.73      35.19      26.07
H      -1.35      37.14      26.07
H      27.68      -7.40      23.54
H      29.06      -5.45      23.55
H      24.43      -5.10      24.93
H      25.80      -3.15      24.92
H     -12.69      24.07      22.22
H     -14.08      22.13      22.23
H     -11.60      23.31      26.23
H     -12.97      21.35      26.23
H     -15.48      20.78      26.07
H     -16.86      18.83      26.07
H     -13.78      19.57      22.40
H     -15.16      17.61      22.41
H     -17.98      18.74      22.35
H      39.35      18.00      21.07
H     -19.00      15.01      23.65
H     -19.00      12.98      24.82
H     -14.83      16.56      26.15
H     -14.84      14.38      27.44
H     -17.51      12.24      29.33
H     -16.14      11.26      31.02
H     -14.50      11.53      26.46
H     -13.12      10.55      28.15
H     -17.96       9.98      27.38
H      39.33       9.26      26.14
H      36.20      13.62      21.05
H      36.21      11.41      22.30
H      38.88       8.71      23.21
H      37.51       6.75      23.21
H      35.87      10.83      25.26
H      34.49       8.88      25.26
H      33.27       7.39      23.54
H      31.89       5.45      23.55
H      35.15       3.14      24.92
H      36.52       5.09      24.93
H      36.53      17.38      22.02
H      35.15      18.37      20.33
H      34.34      15.95      16.87
H      32.97      16.92      15.17
H      34.06      20.77      16.52
H      35.44      19.80      18.19
H      36.85      15.80      17.44
H      38.23      14.82      19.13
H     -11.89      11.30      30.30
H     -10.51      10.32      31.98
H     -15.15       8.94      31.59
H     -13.78       7.98      33.29
H       8.55      34.07      12.26
H       7.17      35.05      13.94
H      12.82      34.40      12.84
H      14.20      33.44      11.15
H      11.03      33.77       8.37
H      10.34      37.62      15.04
H       9.66      34.76      10.05
H      11.71      36.66      13.34
H      11.94      -5.47      35.14
H      13.30      -6.45      33.45
H      10.83      -8.03      38.43
H       9.44      -7.07      40.11
H       8.07      -4.20      37.33
H      11.93     -10.29      34.54
H       9.43      -5.18      35.65
H      10.54      -9.31      36.22
H     -11.24      28.32      23.37
H     -12.62      26.37      23.39
H      -6.97      27.66      23.37
H      -5.59      29.60      23.39
H      -8.76      31.84      25.06
H      -9.45      24.14      25.06
H     -10.13      29.89      25.08
H      -8.08      26.09      25.08
H      31.73       0.29      26.16
H      33.09       2.24      26.17
H      30.62      -1.28      22.30
H      29.23      -3.22      22.30
H      27.86      -2.25      26.17
H      31.72       3.21      22.29
H      29.22      -0.29      26.16
H      30.33       1.28      22.30
H      28.34      21.57      12.84
H      26.96      22.53      11.15
H      32.61      21.90      12.26
H      33.99      20.92      13.94
H      30.82      18.35      15.04
H      30.13      22.20       8.37
H      29.45      19.31      13.35
H      31.50      21.21      10.05
H      -7.85       5.18      35.64
H      -6.49       4.20      37.33
H      -8.96       9.31      36.22
H     -10.35      10.29      34.54
H     -11.72       6.45      33.45
H      -7.86       7.07      40.11
H     -10.35       5.48      35.14
H      -9.24       8.04      38.43
N      20.58      27.99       2.13
N      22.36      26.73       0.00
N       0.79       0.00      46.35
N      18.80      29.25       0.00
N       0.79      40.13      23.17
N       2.57      42.61      23.15
N      20.58     -12.15      25.30
N      -0.99      41.35      25.33
N     -19.00      15.84      23.17
N     -17.22      14.62      25.33
N     -19.00      12.15      25.30
N      38.59      13.36      23.14
