16

C       2.01      -3.64      17.85
C      -2.60      -5.98      15.27
O       2.50      -4.11      18.98
O       2.49      -2.58      17.36
O      -3.28      -6.84      15.92
O      -2.88      -5.53      14.10
H       1.07      -3.09      15.44
H      -0.94      -4.09      14.30
H      -1.52      -6.72      17.64
H       0.47      -5.72      18.79
C       0.89      -4.34      17.18
C       0.50      -3.89      15.90
C      -0.61      -4.44      15.28
C      -1.36      -5.45      15.92
C      -0.94      -5.92      17.17
C       0.17      -5.37      17.80
