16

O       2.51       6.76      14.39
O       2.49       4.59      13.87
O      -3.28       5.47      18.28
O      -2.88       3.25      18.06
H       1.07       3.18      15.28
C       0.50       3.98      15.74
C      -0.61       3.72      16.53
C       0.89       5.31      15.49
H       0.47       7.40      15.88
C       0.17       6.37      16.07
C       2.01       5.55      14.55
C      -0.94       6.10      16.87
H      -0.94       2.70      16.72
C      -1.36       4.78      17.08
C      -2.60       4.48      17.87
H      -1.52       6.91      17.32
