32

O       1.60       1.13      10.64
O       3.28       2.43      10.15
O       4.83       0.25       9.63
O       9.53      -0.59      13.00
C       6.76      -0.16      13.26
C       5.40      -0.16      13.20
C       3.39      -0.13      14.59
C       2.72      -1.35      13.94
C       3.03      -0.05      16.08
C       6.76       0.16      10.85
C       5.40       0.16      10.91
C       3.39       0.13       9.52
C       2.72       1.35      10.17
C       3.03       0.05       8.03
H       7.21      -0.27      14.07
H       3.09       0.68      14.13
H       3.21      -0.89      16.50
C       7.45       0.00      12.05
C       4.68       0.00      12.05
C       8.97       0.00      12.05
H       2.10       0.16      16.17
H       3.55       0.64      16.50
H       7.21       0.27      10.04
H       3.09      -0.68       9.98
H       3.21       0.89       7.61
H       2.10      -0.16       7.94
H       3.55      -0.64       7.61
H       3.75       0.00      12.05
O       1.60      -1.13      13.47
O       3.28      -2.43      13.96
O       4.83      -0.25      14.48
O       9.53       0.59      11.11
