32

C       3.77       9.29       9.76
C       3.18       8.14      10.55
C       5.23       9.41       9.99
C       0.86       8.48       4.39
H      -1.00       8.97       6.13
H       2.96       8.71       5.99
H       1.14       9.54       9.52
H      -0.83       9.19      10.52
H      -3.30      10.40       9.89
H      -2.86       9.93      11.32
H      -3.14       8.87      10.20
H       3.34      10.12      10.04
H       5.68       8.63       9.63
H       5.41       9.47      10.93
H       5.57      10.19       9.54
O       3.54       9.09       8.36
O       2.86       7.11       9.99
O       3.13       8.39      11.80
O      -1.32       9.38       8.59
O      -0.50      11.58      11.27
O      -0.80      11.97       9.14
O      -0.25       8.55       3.83
O       1.91       8.19       3.76
C      -0.10       9.26       7.99
C      -0.18       8.99       6.56
C       0.95       8.78       5.88
C       2.18       8.84       6.49
C       2.27       9.10       7.87
C       1.10       9.33       8.62
C      -1.36       9.81       9.97
C      -0.82      11.21      10.12
C      -2.79       9.74      10.38
