32

O      10.00       7.09      14.40
O      11.46       9.19      13.51
O      13.36       8.13      13.82
O       5.28       6.95      13.00
C       9.43       6.08      10.89
C       8.03       6.07      10.92
C      11.41       5.77       9.54
C      12.13       4.61      10.24
C      11.67       5.77       8.04
C       9.43       6.76      13.22
C       8.03       6.78      13.19
C      11.41       7.07      14.57
C      12.13       8.23      13.86
C      11.67       7.07      16.07
H       7.56       5.82      10.15
H      11.75       6.61       9.91
C      10.16       6.42      12.05
C       7.35       6.42      12.05
C       5.86       6.42      12.05
H      11.37       4.94       7.67
H      12.61       5.87       7.88
H      11.19       6.49       7.63
H       7.56       7.03      13.95
H      11.75       6.23      14.20
H      11.37       7.91      16.44
H      12.61       6.97      16.23
H      11.19       6.35      16.48
H      11.09       6.42      12.05
O      10.00       5.75       9.70
O      11.46       3.65      10.60
O      13.36       4.71      10.28
O       5.28       5.89      11.10
