16

C       4.54      16.05      18.33
C       0.90      20.37      20.86
V       2.50      18.06      19.64
V       6.13      18.36      19.55
C       0.94      19.29      17.36
C       4.56      17.13      21.84
O       5.73      17.46      21.28
O       2.11      18.96      17.91
O       3.33      16.47      18.66
O       6.95      19.95      20.53
O       3.34      17.30      21.32
O       6.98      19.12      17.87
O       2.07      19.80      20.59
O       5.70      16.62      18.61
O       4.49      19.03      19.35
O       0.86      17.39      19.84
