22

O      -0.02       1.09       3.23
Cr      -0.98       2.06       4.64
Cr       2.46       2.69       4.64
O       2.25       1.28       3.14
Cr       0.22       5.32       4.64
O       2.25       1.28       6.13
O       2.84       4.02       6.02
O       2.84       4.01       3.25
O       1.57       5.86       6.13
O       1.57       5.85       3.14
O      -1.12       4.96       6.04
O      -1.12       4.96       3.24
O       0.57       3.35       4.64
C       1.12       0.77       6.53
C       1.13       0.74       2.77
C       2.02       4.77       6.71
C       2.57       5.17       2.76
C      -1.33       3.84       6.68
C      -1.30       3.82       2.59
O      -2.11       2.93       6.15
O      -2.11       2.93       3.12
O      -0.02       1.09       6.04
