69

C      12.16      13.59      17.66
H      10.62      14.99      17.01
H      11.85      15.71      18.11
O      10.44      14.46      19.03
H      13.60      14.32      19.08
H      12.42      13.17      19.77
H      15.92      12.83      22.77
O      13.95      12.31      18.63
O      10.46      12.69      16.27
H      14.23      13.52      21.08
C      11.25      14.81      17.90
O      18.33      17.44      12.89
H      15.69      10.47      18.39
C      13.04      13.39      18.89
O      13.92      14.90      16.66
C      14.86      12.03      19.63
C      15.85      12.31      21.81
C      16.72      11.25      21.57
C       9.52      15.37      19.51
C       9.22      16.60      18.91
C      14.91      12.71      20.85
C      15.74      10.97      19.36
C      16.65      10.58      20.33
O      18.33       9.73      22.40
C      17.72      10.84      22.62
C       8.90      14.99      20.70
O      17.89      11.60      23.62
H       9.68      16.89      17.97
C       8.01      15.85      21.32
H       8.04      18.41      19.10
O       6.14      17.51      22.48
C      11.27      12.35      17.41
C       7.70      10.07      14.55
C      13.03      13.80      16.42
C      14.85      15.17      15.68
H      11.88      11.46      17.21
H      17.33       9.75      20.16
H      10.64      12.17      18.29
H      13.62      12.89      16.23
H      12.41      14.00      15.54
C       9.54      11.79      15.79
C      14.91      14.48      14.46
C      15.86      14.86      13.51
C      15.74      16.22      15.94
H      14.22      13.67      14.23
C       8.02      11.32      13.98
H       7.54      11.60      13.05
H      15.69      16.73      16.90
C      16.66      16.59      14.97
C       8.92      12.17      14.60
H       9.13      14.01      21.13
O       6.40      19.09      20.86
C      17.73      16.31      12.68
H      17.35      17.42      15.15
O      17.90      15.54      11.70
H       9.15      13.15      14.17
O       6.16       9.64      12.81
C      16.74      15.92      13.74
C       8.30      17.45      19.53
C       8.30       9.72      15.76
O       6.43       8.06      14.44
H      15.93      14.33      12.56
C       7.68      17.09      20.74
C       9.23      10.56      16.39
H       8.04       8.76      16.20
H       7.53      15.58      22.26
H       9.69      10.27      17.33
C       6.67      17.98      21.40
C       6.69       9.17      13.89
