38

H      12.81       9.25      14.87
H      11.03       9.37      14.94
H      13.37      11.33      13.88
H      11.68      11.88      14.11
H      14.74      11.11       8.86
H      15.56      10.55      10.34
H      13.68      12.86      10.66
H      14.52      11.92      11.93
H      10.78      11.67      11.05
H      10.50      12.92      12.30
N      12.95       7.38      12.95
N      14.47       8.09      10.42
N      13.95       5.85      11.29
H      11.38      13.33      10.82
N      13.49      10.73      10.56
N      11.95      10.01      13.11
N      12.50      12.26      12.24
H      13.64       8.86       8.65
H      15.42       8.73       8.59
H      13.07       6.76       9.64
C      14.56       8.98       9.24
H      14.76       6.22       9.43
C      14.05       6.69      10.12
H      11.71       6.99      14.67
H      11.91       6.17      11.60
H      15.66       6.43      12.48
H      10.87       7.55      13.20
C      11.78       7.67      13.81
H      15.94       5.18      11.23
H      15.06       4.78      12.71
C      12.84       6.11      12.19
H      12.76       5.25      12.88
C      15.22       5.56      11.96
C      11.88       9.12      14.29
C      12.39      11.41      13.41
C      14.66      10.43       9.72
C      13.60      12.00      11.34
C      11.22      12.54      11.57
