13

H      12.03       6.11       0.88
H      11.84       6.11      -1.89
O      13.64       6.91      -4.08
O      15.51       7.84      -3.14
O      15.89       7.79       1.52
O      14.10       7.22       2.82
C      12.67       6.43      -1.27
C      14.39       7.28      -3.08
C      14.68       7.34       1.72
C      13.99       6.98       0.47
C      12.76       6.44       0.15
O      14.66       7.30      -0.69
C      13.84       6.97      -1.75
