13

C      -1.39      -0.99       8.01
C      -1.09      -5.12       5.59
C      -1.79      -3.88       5.94
C      -3.02      -3.33       5.63
C      -3.11      -2.10       6.35
O       0.13      -5.16       6.06
O      -1.12      -3.04       6.80
O      -1.66      -6.01       4.94
C      -1.93      -1.97       7.06
O      -2.15       0.06       8.19
O      -0.27      -1.20       8.53
H      -3.74      -3.78       4.96
H      -3.93      -1.40       6.39
