13

H      11.62       3.78       4.96
H      11.80       1.40       6.39
O       8.14       1.20       8.53
O      10.02      -0.06       8.19
C       9.26       0.99       8.01
O       8.99       3.04       6.80
C       9.66       3.88       5.94
C      10.89       3.33       5.63
C      10.98       2.10       6.35
C       9.81       1.97       7.06
C       8.96       5.12       5.59
O       7.74       5.16       6.06
O       9.54       6.01       4.94
