13

C       6.52       7.28       3.08
C       6.80       7.34      -1.72
C       6.11       6.98      -0.47
C       4.89       6.44      -0.15
C       4.79       6.43       1.27
C       5.97       6.97       1.75
O       8.01       7.79      -1.52
O       6.23       7.22      -2.82
O       6.79       7.30       0.69
O       5.77       6.91       4.08
O       7.64       7.84       3.14
H       4.16       6.11      -0.88
H       3.97       6.11       1.89
