13

C      -4.00       7.41       6.81
C      -3.70       3.27       9.22
C      -4.41       4.52       8.87
C      -5.63       5.07       9.18
C      -5.72       6.30       8.46
O      -2.49       3.24       8.75
O      -4.28       2.39       9.87
O      -3.73       5.35       8.01
C      -4.55       6.43       7.75
O      -4.76       8.46       6.62
O      -2.89       7.19       6.28
H      -6.36       4.62       9.85
H      -6.55       7.00       8.43
