25

U       8.36       7.94       8.94
U       7.94      11.14       1.98
U       8.10       9.56       5.68
C       5.89       9.10       3.87
C       7.16       7.16      11.93
C       4.92       8.66       2.82
C       6.84      10.13       8.15
C      11.50      10.35       8.17
C       9.83       5.02       9.96
C       5.39      10.42       8.65
C      10.50       9.97       7.14
C       9.61       8.81       2.76
C      11.03       8.59       2.36
O       7.21      10.94       7.11
O       7.18       6.89      10.69
O      10.26      10.68       6.10
O       9.23       8.40       3.92
O       9.06      12.21       0.25
O       7.72       9.99       9.20
O       8.75       9.04       1.80
O       6.56      10.21       3.72
O       6.63      13.13       1.86
O       9.86       8.84       7.29
O       9.69       5.87       9.04
O       6.05       8.42       4.94
