20

Co       0.52       8.35       4.88
Co       0.95       6.42       2.32
C      -1.99       9.29       6.53
C      -2.37       7.34       5.74
C       0.45       8.61       0.38
C       1.04       6.93      -0.82
C       1.02       5.31       4.96
C       0.77      10.68       5.69
C      -1.49       7.32       2.64
C       3.10       8.01       3.18
N      -1.38       8.23       5.90
N       0.80       7.27       0.45
O       1.00       6.47       5.49
O       0.88       5.05       3.71
O       0.30      10.49       4.51
O       1.11       9.68       6.41
O      -0.34       7.80       3.04
O      -1.53       6.17       2.12
O       2.84       6.90       2.58
O       2.31       8.67       3.91
