32

H       9.58       1.83       1.43
H       8.45       5.58      -0.41
H       7.54       1.87      -2.37
H       9.59      -1.84      -1.43
H       8.42      -5.59       0.36
H       7.55      -1.89       2.37
C       7.13       4.58      -2.47
C       9.12       2.39       0.62
C       8.51       4.49      -0.42
C       9.14       3.79       0.61
C       7.91       3.80      -1.48
C       8.55       1.70      -0.46
C       7.98       2.41      -1.53
C       9.83       4.52       1.69
C       7.10      -4.61       2.43
C       9.12      -2.39      -0.62
C       8.49      -4.50       0.39
C       9.13      -3.79      -0.62
C       7.90      -3.82       1.46
C       8.55      -1.71       0.47
C       7.97      -2.43       1.53
C       9.82      -4.52      -1.71
N       8.53       0.28      -0.56
N       8.53      -0.30       0.57
O       6.85       5.82      -2.18
O       6.66       4.04      -3.52
O      10.15       5.79       1.53
O      10.14       3.95       2.77
O       6.78      -5.82       2.12
O       6.67      -4.09       3.52
O      10.17      -5.78      -1.54
O      10.10      -3.96      -2.80
