32

O       3.70       7.52       1.54
O       3.65       9.34       2.80
H       3.16      15.14      -1.41
H       2.04      18.89       0.42
H       1.14      15.18       2.40
H       3.14      11.47       1.45
H       2.03       7.73      -0.41
H       1.15      11.45      -2.39
C       0.72      17.90       2.48
C       2.70      15.70      -0.60
C       2.09      17.80       0.43
C       2.72      17.10      -0.60
C       1.50      17.12       1.50
C       2.13      15.01       0.48
C       1.57      15.72       1.56
C       3.41      17.83      -1.67
C       0.73       8.73      -2.48
C       2.69      10.92       0.63
C       2.08       8.82      -0.42
C       2.70       9.52       0.62
C       1.50       9.51      -1.49
C       2.13      11.61      -0.46
C       1.57      10.91      -1.54
C       3.37       8.78       1.70
N       2.11      13.60       0.58
N       2.11      13.02      -0.56
O       0.45      19.14       2.20
O       0.25      17.36       3.54
O       3.70      19.10      -1.52
O       3.74      17.26      -2.75
O       0.45       7.50      -2.20
O       0.25       9.27      -3.54
