14

O       5.89       7.85       1.40
H       1.72       8.59       0.05
H       2.65       4.82       1.94
H       4.13       9.24       0.33
H       5.04       5.66       2.22
C       0.61       6.17       0.67
C       2.00       6.65       0.98
C       2.94       5.82       1.61
C       2.42       7.91       0.54
C       4.25       6.24       1.76
C       3.74       8.30       0.69
O      -0.19       7.03       0.19
N       4.64       7.47       1.29
O       0.37       4.93       0.87
