14

C       0.18       0.41      11.31
C       0.13      -0.24      12.65
C      -0.13      -1.61      12.79
C       0.27       0.53      13.81
C      -0.25      -2.17      14.05
C       0.18      -0.06      15.06
O       0.30      -0.32      10.26
N      -0.08      -1.39      15.17
O       0.05       1.67      11.24
O      -0.19      -1.93      16.37
H      -0.26      -2.26      11.93
H       0.44       1.61      13.75
H      -0.46      -3.21      14.26
H       0.27       0.48      15.99
