14

O       1.75       1.59       8.59
O       2.30      -0.51       7.90
O       7.83       2.40       7.38
H       4.58      -0.61       6.83
H       3.66       3.15       8.72
C       2.54       0.73       8.10
C       3.93       1.21       7.79
C       4.87       0.38       7.16
C       4.35       2.47       8.23
C       6.18       0.81       7.00
C       5.67       2.86       8.08
H       6.97       0.23       6.54
H       6.07       3.80       8.45
N       6.57       2.02       7.49
