14

O       8.12       3.44       9.97
O       8.62       5.08      16.04
O       8.28       7.08      15.10
H       8.04       3.16      14.41
C       8.41       5.18      13.66
C       8.17       3.80      13.54
H       7.87       2.18      12.10
C       8.07       3.23      12.28
C       8.47       5.33      11.26
C       8.45       5.82      15.01
C       8.54       5.94      12.49
H       8.70       7.01      12.54
H       8.56       5.86      10.31
N       8.23       3.99      11.16
