14

N       1.70       3.34      16.28
O       6.52       3.81      17.38
O       5.97       5.91      16.69
O       0.45       2.95      16.16
H       3.67       6.00      15.62
H       4.63       2.24      17.51
H       1.29       5.14      15.34
H       2.23       1.57      17.23
C       5.73       4.67      16.89
C       4.34       4.19      16.59
C       3.39       5.00      15.96
C       3.93       2.92      17.02
C       2.09       4.57      15.80
C       2.62       2.52      16.87
