26

O       0.45       5.24      10.76
H       2.62       6.75      13.55
H       0.69       8.72      14.86
H       0.96       8.50      12.73
H      -2.05       6.06      14.71
O       1.39       7.28      10.81
H      -0.95       4.74      15.24
H      -0.35       4.39      13.06
H      -1.47       5.67      12.55
H      -1.12       8.52      14.61
H      -0.75       8.01      12.42
H       2.11       6.91      15.76
H       1.46       5.23      15.78
H       2.19       5.02      13.59
C       1.40       6.21      15.25
C      -0.04       6.75      15.32
C       0.61       6.35      12.82
C       0.16       7.80      13.03
C       1.80       6.04      13.77
C       1.06       6.18      11.42
C      -0.44       7.11      16.70
C      -1.00       5.70      14.67
C      -0.60       5.45      13.21
C      -0.12       8.05      14.49
O      -1.38       6.42      17.20
O      -0.08       8.25      17.16
