20

O      -1.33       6.02       1.26
O      -0.03       7.83       1.43
H      -1.53       5.04       6.08
H      -1.79       5.03       3.61
H       2.05       8.83       3.16
H       2.60       7.03       3.20
H       2.84       7.17       5.57
H       2.23       8.96       5.53
C      -0.21       6.48       3.27
C       0.58       7.42       3.91
C       0.69       7.47       5.26
C      -0.95       5.72       5.48
C      -1.07       5.69       4.07
C       1.99       7.84       3.66
C       2.12       7.91       5.16
C       0.04       6.53       6.07
C       0.60       6.28       7.38
C      -0.44       6.72       1.86
O       0.48       5.13       7.95
O       1.43       7.16       7.78
