66

Sm       1.03       2.19       4.40
Sm       2.42       4.45       9.22
H      -0.22       5.65       3.79
H      -0.31       7.69       2.33
H       3.71      -0.74       5.06
H       2.38       7.72       6.51
H       6.32       3.72       1.25
H       1.70       5.38       0.65
H      -1.66       8.18       4.93
H       5.83       0.38       7.24
H       3.66       0.98       9.84
H       3.75      -1.06      11.31
H      -0.27       7.37       8.57
H       1.06      -1.09       7.12
H      -2.87       2.93      12.38
H       1.74       1.27      12.98
H       5.10      -1.54       8.70
H      -2.38       6.26       6.39
C       1.10       6.56       5.22
C       0.34       6.55       4.04
C       0.28       7.68       3.24
C       1.00       8.84       3.60
C       1.76       8.85       4.78
C       1.81       7.72       5.59
C       1.15       5.33       6.08
C       2.31      -0.42       2.75
C      -0.21       4.48       1.05
C       6.96       4.40       0.69
C       0.66       5.33       0.35
C       0.29       3.67       2.19
C      -1.45      -0.87       6.01
C      -2.36       8.33       5.75
C       6.19      -0.63       7.07
C      -0.91       0.28       5.22
C       2.35       0.07       8.40
C       3.10       0.08       9.59
C       3.16      -1.05      10.39
C       2.45      -2.21      10.03
C       1.68      -2.22       8.85
C       1.64      -1.09       8.04
C       2.30       1.30       7.54
C       1.13       7.06      10.88
C       3.65       2.17      12.58
C      -3.52       2.25      12.93
C       2.79       1.32      13.28
C       3.16       2.98      11.44
C       4.89       7.51       7.63
C       5.80      -1.69       7.88
C      -2.74       7.27       6.56
C       4.36       6.36       8.41
O       0.92       4.20       5.56
O       1.40       5.48       7.33
O       0.62       9.97       1.53
O       2.51       0.73       3.30
O      -0.56       2.97       2.86
O       1.52       3.69       2.52
O      -0.27       0.07       4.14
O      -1.01       1.47       5.68
O       2.54       2.43       8.07
O       2.03       1.15       6.31
O       2.82      -3.32      12.10
O       0.94       5.91      10.34
O       4.01       3.68      10.77
O       1.92       2.97      11.11
O       3.71       6.57       9.49
O       4.46       5.17       7.95
