31

H      18.04       9.10      19.26
N      19.41       7.74      13.45
C      17.31       9.28      17.22
C      18.06       8.69      18.26
C      18.80       7.53      18.00
C      18.85       7.00      16.70
C      18.16       7.62      15.65
C      17.36       8.73      15.94
C      18.27       7.14      14.23
C      19.31       9.22      13.36
H      19.43       6.10      16.53
H      16.76       9.20      15.16
C      16.40      10.47      17.41
C      19.50       6.78      19.10
H      18.42       6.05      14.19
H      17.36       7.36      13.66
C      20.72       7.34      14.01
H      20.65       6.29      14.34
H      21.00       7.95      14.88
C      21.82       7.39      12.96
H      19.74       9.72      14.23
H      18.24       9.48      13.30
C      19.94       9.78      12.07
O      19.68       9.01      11.02
O      20.54      10.85      12.05
O      21.53       7.07      11.77
O      22.97       7.74      13.39
O      15.47      10.54      16.54
O      16.62      11.30      18.36
O      19.64       7.36      20.23
O      19.89       5.59      18.82
