22

Cr       8.02       2.69      20.10
Cr       4.63       2.63      20.10
Cr       6.27       5.60      20.10
O       8.95       3.71      18.62
O       5.05       1.32      21.58
O       4.93       5.89      18.62
O       8.95       3.71      21.58
O       5.05       1.32      18.62
O       4.93       5.89      21.58
C       6.22       1.07      18.18
C       4.13       5.00      22.02
C       8.58       4.85      18.18
C       6.22       1.07      22.02
C       4.13       5.00      18.18
O       4.08       3.83      21.49
C       8.58       4.85      22.02
O       7.26       1.62      21.49
O       4.08       3.83      18.71
O       7.26       1.62      18.71
O       7.58       5.47      18.71
O       6.31       3.64      20.10
O       7.58       5.47      21.49
