840

C       9.54      20.38      30.00
C      28.26      35.19       0.79
C      27.39      34.07       0.89
C       7.82      18.14      30.19
C       8.00      18.77      28.94
C       8.86      19.90      28.84
C     -10.10      35.70       1.93
C       9.08      20.56      27.61
C      10.42      21.51      29.90
C       1.03      -0.26       0.60
C       1.90       0.86       0.50
C     -16.83     -13.97      29.71
C     -17.49     -14.43      28.55
C      10.61      22.17      28.64
C       0.82      -0.92       1.83
C       9.93      21.66      27.51
C       7.30      18.27      27.86
C      21.75     -13.73      27.37
C       2.60       1.37       1.58
C      27.19      33.36       2.06
C      24.94      10.36      14.73
C     -12.77      10.14      15.19
C     -11.83      11.21      15.20
C     -12.23      12.48      14.75
C     -13.54      12.72      14.29
C      24.56      11.65      14.27
C     -12.41       8.84      15.63
C      23.23      11.85      13.82
C      23.99       9.28      14.71
C      24.38       7.98      15.16
C      23.43       6.92      15.14
C      22.12       7.15      14.68
C      21.72       8.43      14.23
C      22.66       9.50      14.24
C     -13.34       7.79      15.61
C      22.31      10.80      13.81
C     -13.84      13.99      13.85
C      20.43       8.57      13.75
C      23.74       5.64      15.58
C     -10.54      11.07      15.68
C       4.55      10.16      15.20
C       5.11      10.51      16.47
C       4.31      11.20      17.44
C       2.98      11.53      17.12
C       2.41      11.19      15.88
C       3.20      10.51      14.91
C       6.45      10.17      16.73
C       2.67      10.15      13.65
C       5.34       9.47      14.23
C       6.70       9.13      14.53
C       7.48       8.44      13.56
C       6.92       8.10      12.31
C       5.58       8.43      12.00
C       4.79       9.12      12.96
C       7.23       9.49      15.79
C       3.44       9.47      12.70
C       1.10      11.57      15.65
C       5.11       8.11      10.74
C       8.79       8.07      13.79
C       4.78      11.53      18.70
C      19.87      28.30      14.29
C      20.45      27.08      14.74
C      21.31      26.34      13.88
C      21.59      26.83      12.59
C      21.02      28.03      12.13
C      20.16      28.78      12.97
C     -18.90      26.63      16.05
C      19.58      29.99      12.55
C      19.00      29.05      15.15
C      18.71      28.58      16.46
C      27.91      -8.40      17.31
C      27.35      -7.19      16.85
C      27.62      -6.70      15.55
C      28.48      -7.45      14.69
C     -19.75      27.36      16.89
C      18.73      30.73      13.39
C      21.33      28.43      10.84
C      27.00      -5.53      15.16
C     -11.43      -8.79      18.60
C     -17.10      25.17      14.28
C     -25.74      24.64      25.74
C     -14.28     -12.96      25.59
C     -13.72     -12.36      24.44
C      24.47     -11.88      23.41
C      12.49      25.12      24.68
C      24.96     -11.26      22.23
C      14.06      26.84      21.15
C      14.62      27.45      20.01
C      26.07     -10.01      19.93
C     -12.17     -10.42      21.03
C      18.11       8.46      14.34
C      17.27       7.91      15.33
C      15.87       7.96      15.19
C      15.29       8.58      14.06
C      17.49       9.07      13.22
C      13.88       8.66      13.86
C      13.30       9.37      12.78
C      11.90       9.41      12.65
C      11.06       8.73      13.56
C      11.69       8.04      14.62
C       4.62       6.30       9.25
C       4.94       4.93       9.07
C       4.53       4.25       7.90
C       3.78       4.93       6.91
C       3.87       6.93       8.24
C       3.34       4.30       5.71
C       2.50       4.94       4.77
C       2.10       4.26       3.60
C       2.54       2.95       3.35
C       3.37       2.34       4.32
C      26.79      -3.19      15.59
C      27.03      -2.25      16.62
C      26.59      -0.92      16.50
C      25.91      -0.50      15.33
C      26.11      -2.73      14.44
C      25.44       0.83      15.15
C      24.86       1.28      13.94
C      24.41       2.61      13.83
C      24.52       3.50      14.91
C      25.12       3.01      16.10
C      25.57      32.72       3.70
C      24.17      32.60       3.85
C      23.62      32.00       5.00
C      24.47      31.52       6.02
C      26.38      32.24       4.75
C      23.97      30.89       7.21
C     -14.23      30.51       8.28
C     -14.79      29.91       9.43
C      22.87      29.65       9.50
C      22.07      30.05       8.41
C      -8.22      11.18      15.10
C      -7.38      11.73      14.11
C      -5.98      11.68      14.24
C      -5.40      11.06      15.38
C      -7.60      10.56      16.21
C      -3.99      10.98      15.58
C      -3.40      10.27      16.65
C      -2.00      10.23      16.79
C      -1.17      10.91      15.88
C      -1.79      11.60      14.82
C       5.27      13.34      20.19
C       4.96      14.70      20.37
C       5.37      15.38      21.53
C       6.11      14.70      22.52
C       6.03      12.70      21.20
C       6.55      15.33      23.73
C       7.39      14.69      24.67
C       7.80      15.38      25.83
C       7.35      16.69      26.09
C       6.52      17.30      25.12
C      22.15      22.82      13.84
C      21.90      21.89      12.82
C      22.34      20.56      12.94
C     -16.02      20.14      14.11
C     -16.22      22.36      15.00
C     -15.54      18.81      14.29
C     -14.96      18.36      15.50
C     -14.51      17.03      15.61
C     -14.62      16.14      14.52
C      23.82      16.62      13.34
C       4.97      23.89      23.08
C       4.78      23.23      24.34
C       3.91      22.11      24.43
C       3.25      21.65      23.27
C       3.43      22.28      22.03
C       4.29      23.41      21.93
C       5.46      23.74      25.47
C       4.51      24.07      20.69
C       5.85      25.02      22.98
C      16.60     -12.22      24.14
C      17.46     -11.09      24.04
C      17.64     -10.46      22.79
C      16.98     -10.92      21.64
C       6.04      25.68      21.73
C      16.38     -12.88      25.37
C       5.36      25.17      20.60
C       2.73      21.78      20.95
C      17.18     -10.22      20.46
C      18.16     -10.59      25.12
C       3.71      21.41      25.61
C      20.37      13.87       7.81
C      21.70      13.65       8.28
C      22.64      14.72       8.29
C      22.24      15.99       7.84
C      20.93      16.23       7.38
C      19.99      15.16       7.36
C      22.06      12.35       8.71
C      18.66      15.36       6.91
C      19.42      12.79       7.80
C      19.81      11.49       8.25
C      18.86      10.43       8.23
C      17.55      10.66       7.77
C      17.15      11.94       7.32
C      18.09      13.01       7.33
C      21.13      11.30       8.70
C      17.74      14.31       6.90
C      20.63      17.50       6.94
C      15.86      12.08       6.84
C      19.17       9.15       8.67
C      23.94      14.58       8.77
C      -0.02      13.67       8.29
C       0.54      14.02       9.56
C      -0.26      14.71      10.52
C      -1.59      15.04      10.21
C      -2.16      14.70       8.97
C      -1.37      14.02       8.00
C       1.88      13.68       9.82
C      -1.90      13.66       6.74
C       0.77      12.98       7.32
C       2.13      12.64       7.61
C       2.91      11.95       6.64
C       2.35      11.62       5.40
C       1.01      11.94       5.09
C       0.22      12.63       6.05
C       2.66      13.00       8.87
C      -1.13      12.98       5.79
C      -3.47      15.08       8.74
C       0.54      11.62       3.83
C       4.22      11.58       6.88
C       0.21      15.04      11.79
C      15.30      31.81       7.38
C      15.88      30.59       7.83
C      16.74      29.85       6.97
C      17.02      30.34       5.68
C      16.45      31.54       5.21
C      15.59      32.29       6.06
C      15.57      30.14       9.13
C      15.01      33.50       5.64
C      14.43      32.56       8.23
C      14.14      32.09       9.55
C      23.34      -4.88      10.40
C      22.78      -3.68       9.94
C      23.05      -3.19       8.64
C      23.91      -3.93       7.78
C      14.72      30.87       9.97
C      14.16      34.24       6.48
C      16.76      31.94       3.92
C      22.43      -2.02       8.25
C      23.04      -5.28      11.69
C      17.37      28.68       7.37
C       8.73      28.15      18.82
C      20.19      -9.45      18.67
C      20.75      -8.85      17.53
C      19.90      -8.37      16.50
C       7.92      28.63      17.77
C      20.39      -7.75      15.32
C       9.49      30.35      14.24
C      10.05      30.96      13.10
C      21.50      -6.50      13.02
C      22.30      -6.91      14.11
C      13.54      11.97       7.42
C      12.70      11.42       8.41
C      11.30      11.47       8.28
C      10.72      12.09       7.14
C      12.92      12.58       6.31
C       9.31      12.17       6.94
C       8.73      12.88       5.87
C       7.33      12.92       5.73
C       6.49      12.24       6.65
C       7.12      11.55       7.71
C       0.05       9.81       2.34
C       0.37       8.44       2.15
C      -0.04       7.76       0.99
C     -19.70      -7.02      30.46
C      -0.70      10.45       1.33
C      18.91      -7.65      29.25
C      18.07      -7.01      28.31
C      17.66      -7.70      27.15
C      18.11      -9.01      26.90
C      18.94      -9.62      27.86
C      22.22       0.32       8.68
C      22.46       1.26       9.71
C      22.02       2.59       9.59
C      21.34       3.01       8.42
C      21.54       0.78       7.53
C      20.87       4.34       8.24
C      20.29       4.79       7.03
C      19.84       6.12       6.91
C      19.95       7.01       8.00
C      20.54       6.53       9.19
C       2.09      20.76      27.25
C       0.69      20.64      27.39
C       0.14      20.04      28.54
C       0.99      19.56      29.57
C       2.90      20.28      28.30
C      19.40      34.40       0.29
C      20.24      34.02       1.37
C      19.68      33.42       2.51
C      18.30      33.16       2.59
C      17.50      33.56       1.50
C      26.25      14.69       8.19
C      27.09      15.24       7.20
C      28.49      15.19       7.33
C      -9.97      14.57       8.47
C      26.87      14.07       9.30
C      -8.56      14.49       8.67
C      -7.97      13.78       9.74
C      -6.57      13.74       9.88
C      -5.74      14.42       8.96
C      -6.36      15.11       7.90
C       0.70      16.85      13.27
C       0.39      18.21      13.46
C       0.80      18.89      14.62
C       1.54      18.21      15.61
C       1.46      16.21      14.28
C       1.98      18.84      16.81
C       2.82      18.20      17.76
C       3.23      18.89      18.92
C       2.78      20.20      19.17
C       1.95      20.81      18.20
C      17.58      26.33       6.93
C      17.33      25.40       5.90
C      17.77      24.07       6.02
C      18.45      23.65       7.19
C      18.25      25.87       8.08
C      18.93      22.32       7.37
C      19.51      21.87       8.58
C      19.96      20.54       8.70
C      19.85      19.65       7.61
C      19.25      20.13       6.42
C       0.40      27.40      16.17
C       0.21      26.75      17.42
C      -0.66      25.62      17.52
C      -1.32      25.16      16.36
C      -1.14      25.79      15.11
C      -0.28      26.92      15.01
C       0.89      27.25      18.56
C      -0.06      27.58      13.78
C       1.28      28.53      16.07
C      12.03      -8.71      17.23
C      12.89      -7.58      17.13
C      13.07      -6.95      15.88
C      12.41      -7.41      14.72
C       1.47      29.19      14.82
C      11.81      -9.37      18.46
C       0.79      28.68      13.68
C      -1.84      25.29      14.04
C      12.61      -6.71      13.55
C      13.59      -7.08      18.21
C      -0.86      24.92      18.70
C      15.80      17.38       0.90
C      17.13      17.16       1.37
C      18.07      18.23       1.38
C      17.67      19.50       0.93
C      16.36      19.74       0.47
C      15.42      18.67       0.45
C      17.49      15.86       1.80
C      -4.81       3.40      30.45
C      14.85      16.30       0.88
C      15.24      15.00       1.34
C      14.29      13.94       1.32
C      12.98      14.18       0.86
C      12.58      15.45       0.41
C      13.52      16.52       0.42
C      16.56      14.81       1.79
C      -5.74       2.35      30.44
C      16.06      21.01       0.03
C      -7.62       0.12      30.38
C      14.60      12.67       1.76
C      19.37      18.09       1.86
C      -4.59      17.18       1.38
C      -4.03      17.53       2.65
C      -4.83      18.22       3.61
C      -6.16      18.55       3.30
C      32.31      18.21       2.05
C      33.10      17.53       1.08
C      -2.69      17.19       2.91
C      13.66       1.70      30.28
C      -3.80      16.49       0.41
C      -2.44      16.15       0.70
C     -20.56      -0.00      30.19
C     -21.13      -0.34      28.94
C      16.58      -0.01      28.63
C      15.78       0.68      29.59
C      -1.91      16.51       1.96
C      14.44       1.02      29.33
C      31.01      18.59       1.82
C      16.11      -0.34      27.37
C     -19.26      -0.38      30.42
C      -4.36      18.55       4.87
C      10.73      35.33       0.46
C      11.31      34.10       0.92
C      12.17      33.36       0.06
C      -6.46      18.38      29.22
C      -7.02      19.59      28.76
C      -7.89      20.33      29.60
C      11.00      33.65       2.22
C      -8.47      21.55      29.18
C       9.86      36.07       1.32
C       9.57      35.60       2.64
C      18.77      -1.37       3.49
C      18.21      -0.17       3.02
C      18.48       0.32       1.73
C      19.34      -0.42       0.87
C      10.15      34.38       3.06
C      -9.32      22.28      30.02
C      -6.72      19.98      27.47
C      17.86       1.49       1.33
C      18.47      -1.77       4.77
C      12.80      32.19       0.45
C       4.16      31.66      11.91
C      15.62      -5.94      11.76
C      16.18      -5.34      10.61
C      15.33      -4.86       9.59
C       3.35      32.14      10.86
C      15.82      -4.24       8.40
C       4.92      33.86       7.33
C       5.48      34.47       6.18
C      16.93      -2.99       6.11
C      17.73      -3.40       7.20
C       8.97      15.48       0.51
C       8.13      14.93       1.50
C       6.73      14.98       1.37
C       6.15      15.60       0.23
C     -10.55       0.63      29.86
C       4.74      15.68       0.03
C     -14.75       0.92      29.41
C     -16.15       0.96      29.28
C     -16.98       0.28      30.19
C       2.55      15.06       0.80
C      15.62      -2.15      25.88
C      15.93      -3.51      25.70
C      15.52      -4.19      24.54
C      14.78      -3.51      23.54
C      14.86      -1.51      24.87
C      14.34      -4.14      22.34
C      13.49      -3.50      21.40
C      13.09      -4.18      20.24
C      13.54      -5.50      19.98
C      14.37      -6.11      20.95
C      17.65       3.83       1.77
C      17.89       4.77       2.79
C      17.45       6.10       2.67
C      16.77       6.52       1.51
C      16.97       4.29       0.61
C      16.30       7.85       1.32
C      15.72       8.30       0.11
C      -3.63      -5.83      30.46
C      15.38      10.52       1.09
C      15.97      10.04       2.27
C      -2.48      24.27      20.33
C      -3.88      24.15      20.48
C      -4.43      23.55      21.63
C      -3.58      23.07      22.65
C      -1.67      23.79      21.38
C      -4.07      22.45      23.84
C      -3.24      22.07      24.91
C      -3.79      21.46      26.06
C      -5.18      21.20      26.13
C      -5.98      21.61      25.04
C      21.68      18.20       1.27
C      22.52      18.75       0.28
C      23.92      18.70       0.42
C      24.50      18.08       1.55
C      22.30      17.58       2.39
C      25.91      18.00       1.75
C      26.50      17.29       2.83
C      27.90      17.25       2.96
C      28.73      17.93       2.05
C      28.11      18.62       0.99
C      -3.87      20.36       6.36
C      -4.18      21.72       6.54
C      -3.77      22.40       7.71
C      -3.03      21.73       8.70
C      -3.11      19.72       7.37
C      -2.59      22.36       9.90
C      -1.75      21.71      10.84
C      -1.34      22.40      12.01
C      -1.79      23.71      12.26
C      -2.62      24.32      11.29
C      13.01      29.84       0.02
C      -6.14      13.44      29.45
C      -5.71      12.11      29.57
C      13.88      27.16       0.28
C      13.68      29.39       1.17
C      14.36      25.83       0.46
C      14.94      25.38       1.67
C      15.39      24.05       1.78
C      15.28      23.16       0.70
C      -4.23       8.18      29.97
H       7.20      17.33      30.25
H     -16.21     -13.16      29.64
H       1.28      -0.61       2.69
H     -10.22      35.27       2.85
H      10.05      22.09      26.59
H       8.62      20.24      26.75
H       6.44      18.71      27.60
H      20.96     -13.29      26.94
H       3.45       0.93       1.83
H      27.97      32.93       2.49
H     -11.55      13.26      14.77
H      21.45       6.38      14.67
H     -13.02       6.87      15.94
H     -11.47       8.63      15.95
H      21.36      11.01      13.48
H      22.91      12.76      13.50
H      25.24      14.18      12.88
H      20.30       8.83      12.80
H      23.69       5.45      16.56
H     -10.41      10.80      16.63
H       2.40      12.02      17.82
H       7.49       7.62      11.62
H       8.19       9.27      16.04
H       6.90      10.41      17.62
H       3.00       9.23      11.82
H       1.70      10.37      13.40
H       0.93      12.41      15.15
H       4.82       8.84      10.13
H       8.96       7.23      14.29
H       5.07      10.80      19.30
H      22.21      26.30      11.97
H      26.72      -6.66      17.46
H     -19.93      26.98      17.82
H     -18.52      25.76      16.41
H      28.42      -6.12      13.03
H      19.76      30.37      11.62
H      20.68      28.21      10.11
H      26.37      -5.57      14.38
H     -10.79      -8.58      19.33
H     -16.48      25.20      15.05
H     -11.16     -10.29      21.02
H      13.05      26.67      21.18
H      14.00      27.71      19.24
H      11.47      25.05      24.72
H     -13.65     -13.30      26.32
H     -12.71     -12.29      24.37
H      11.14       7.55      15.34
H      13.87       9.87      12.10
H      11.49       9.94      11.87
H      18.04       9.51      12.48
H      17.68       7.46      16.15
H      15.29       7.55      15.93
H       3.70       1.38       4.21
H       2.16       5.90       4.92
H       1.48       4.73       2.94
H       3.59       7.91       8.32
H       5.48       4.43       9.77
H       4.78       3.27       7.80
H      25.26       3.62      16.91
H      24.76       0.66      13.13
H      24.00       2.93      12.94
H      25.92      -3.35      13.65
H     -11.52      -2.54      17.47
H     -12.26      -0.27      17.27
H      21.06      29.93       8.42
H     -13.22      30.68       8.26
H     -14.17      29.65      10.20
H     -11.64      32.31       4.72
H      23.54      32.94       3.12
H      22.60      31.92       5.07
H      -1.24      12.08      14.10
H      -3.98       9.76      17.33
H      -1.59       9.70      17.56
H      -8.15      10.13      16.95
H      -7.78      12.18      13.28
H      -5.40      12.09      13.51
H       6.20      18.26      25.22
H       7.73      13.74      24.52
H       8.41      14.90      26.50
H       6.30      11.72      21.11
H       4.42      15.21      19.66
H       5.12      16.37      21.64
H      23.68      16.02      12.53
H     -14.86      18.98      16.30
H     -14.10      16.71      16.49
H     -16.03      22.98      15.79
H      21.41      22.17      11.97
H      22.15      19.91      12.17
H       2.63      20.84      23.34
H      18.26      -9.65      22.73
H      16.84     -12.56      26.23
H       5.35      23.31      26.39
H       5.48      25.60      19.68
H       4.04      23.75      19.84
H       1.87      22.22      20.69
H      16.39      -9.78      20.03
H      19.02     -11.03      25.38
H       4.50      20.97      26.04
H      22.92      16.77       7.86
H      16.88       9.89       7.75
H      21.45      10.38       9.02
H      23.00      12.14       9.04
H      16.79      14.52       6.57
H      18.34      16.27       6.59
H      20.67      17.69       5.96
H      15.73      12.34       5.89
H      19.12       8.96       9.64
H      24.06      14.31       9.72
H      -2.17      15.53      10.91
H       2.92      11.13       4.70
H       3.62      12.78       9.12
H       2.33      13.92      10.71
H      -1.58      12.74       4.90
H      -2.87      13.88       6.49
H      -3.64      15.92       8.23
H       0.25      12.35       3.22
H       4.39      10.74       7.38
H       0.50      14.31      12.39
H      17.64      29.81       5.06
H      22.15      -3.15      10.55
H      14.54      30.49      10.90
H      15.95      29.27       9.50
H      23.85      -2.61       6.11
H      15.19      33.89       4.71
H      16.11      31.73       3.20
H      21.80      -2.06       7.47
H      23.68      -5.07      12.41
H      17.99      28.71       8.14
H      23.31      -6.78      14.10
H       8.48      30.18      14.27
H       9.43      31.22      12.32
H       6.90      28.56      17.81
H      20.82      -9.79      19.41
H      21.76      -8.78      17.45
H       6.57      11.06       8.42
H       9.30      13.38       5.19
H       6.92      13.45       4.96
H      13.47      13.02       5.57
H      13.10      10.97       9.24
H      10.72      11.06       9.01
H      19.26     -10.58      27.76
H      17.73      -6.06      28.46
H      17.05      -7.22      26.48
H      -0.98      11.42       1.41
H       0.91       7.94       2.86
H       0.21       6.78       0.89
H      20.68       7.13      10.00
H      20.19       4.17       6.22
H      19.43       6.44       6.03
H      21.35       0.16       6.74
H      22.95       0.97      10.56
H      22.21       3.24      10.35
H      16.48      33.44       1.51
H      21.25      34.19       1.35
H      20.30      33.16       3.29
H       3.92      20.35      28.26
H       0.07      20.98      26.66
H      -0.88      19.97      28.61
H      -5.81      15.59       7.19
H      -8.55      13.28      10.42
H      -6.16      13.21      10.65
H      26.32      13.64      10.04
H      26.69      15.69       6.37
H      29.07      15.60       6.60
H       1.63      21.77      18.31
H       3.16      17.25      17.60
H       3.84      18.41      19.59
H       1.73      15.23      14.20
H      -0.15      18.72      12.75
H       0.55      19.88      14.72
H      19.11      19.53       5.61
H      19.61      22.49       9.39
H      20.37      20.22       9.58
H      18.44      26.49       8.87
H      16.84      25.69       5.05
H      17.58      23.42       5.26
H      -1.94      24.35      16.42
H      13.69      -6.14      15.82
H      12.27      -9.05      19.32
H       0.77      26.82      19.48
H       0.91      29.11      12.76
H      -0.53      27.26      12.92
H      -2.70      25.73      13.78
H      11.82      -6.27      13.12
H      14.45      -7.51      18.46
H      -0.07      24.48      19.13
H      18.35      20.28       0.94
H      12.31      13.40       0.84
H      16.88      13.89       2.11
H      18.43      15.65       2.13
H      -6.68       2.57      30.11
H      -5.13       4.32      30.13
H      -2.81       5.73      29.51
H      -7.75       0.39      29.44
H      14.55      12.47       2.73
H      19.49      17.82       2.81
H      -6.74      19.04       3.99
H     -20.56      -0.83      28.25
H      -0.95      16.29       2.21
H      -2.24      17.43       3.80
H      13.99       0.78      28.45
H      12.70       1.92      30.03
H      30.83      19.43       1.32
H      15.82       0.39      26.77
H      -0.18      14.25       0.47
H      -4.07      17.82       5.48
H      -5.83      17.85      28.60
H      17.58       0.36       3.64
H       9.97      34.00       3.99
H      11.38      32.78       2.58
H       0.37     -14.57      29.66
H      -8.29      21.93      28.25
H      -7.36      19.77      26.74
H      17.23       1.46       0.56
H      19.11      -1.56       5.50
H      13.42      32.22       1.23
H      18.74      -3.27       7.19
H       3.91      33.70       7.35
H       4.86      34.73       5.41
H       2.33      32.07      10.89
H      16.25      -6.28      12.49
H      17.19      -5.27      10.54
H       2.00      14.57       1.51
H     -14.18       1.42      28.73
H     -16.56       1.49      28.50
H     -10.00       1.06      29.11
H       8.53      14.48       2.33
H       6.15      14.57       2.10
H      14.69      -7.07      20.84
H      13.16      -2.55      21.55
H      12.48      -3.71      19.57
H      14.59      -0.53      24.95
H      16.47      -4.02      26.41
H      15.77      -5.18      24.43
H      16.11      10.64       3.08
H      -3.29      -7.79      29.76
H      -4.04      -5.52      29.57
H      -2.12     -11.79      30.28
H      18.38       4.48       3.64
H      17.64       6.75       3.44
H      -6.99      21.48      25.05
H      -2.23      22.24      24.89
H      -3.18      21.20      26.83
H      -0.65      23.86      21.35
H      -4.50      24.49      19.75
H      -5.45      23.48      21.70
H      28.66      19.10       0.28
H      25.92      16.79       3.51
H      28.31      16.72       3.74
H      21.75      17.15       3.13
H       3.21       3.73      29.91
H       5.60       3.64      30.14
H      -2.94      25.28      11.40
H      -1.41      20.76      10.69
H      -0.73      21.92      12.67
H      -2.84      18.74       7.29
H      -4.72      22.23       5.84
H      -4.02      23.39       7.81
H      -4.37       7.57      29.16
H      15.04      26.00       2.48
H      15.80      23.73       2.67
H      13.87      30.00       1.96
H      -6.64      13.73      28.60
H      -5.90      11.46      28.80
N      13.06      25.69      23.59
N     -12.74     -11.01      22.10
N     -26.19      24.06      26.84
N      26.54      -9.47      18.82
N      16.14       9.11      13.13
N      13.04       8.03      14.73
N      19.43       8.38      14.53
N       9.75       8.83      13.41
N       3.49       6.24       7.14
N       3.73       3.03       5.43
N       5.04       6.88      10.37
N       2.10       2.34       2.26
N      25.71      -1.44      14.36
N      25.54       1.73      16.17
N      27.23      -4.43      15.77
N      24.12       4.76      14.74
N      25.81      31.67       5.84
N      22.64      30.64       7.33
N      26.02      33.30       2.59
N      22.39      29.11      10.62
N      -6.25      10.53      16.30
N      -3.14      11.61      14.71
N      -9.53      11.26      14.91
N       0.15      10.80      16.03
N       6.41      13.39      22.30
N       6.17      16.61      24.00
N       4.85      12.76      19.06
N       7.79      17.30      27.18
N     -15.82      21.07      15.08
N      23.40      17.91      13.27
N      21.71      24.06      13.67
N     -14.22      14.88      14.70
N       8.49      29.20      16.68
N      21.73      -7.50      15.19
N       8.28      27.57      19.93
N      21.97      -5.96      11.91
N      11.57      12.62       6.22
N       8.47      11.54       7.81
N      14.85      11.89       7.62
N       5.18      12.34       6.49
N      -1.08       9.75       0.23
N      19.29      -8.93      28.98
N       0.47      10.39       3.46
N      17.67      -9.62      25.80
N      21.14       2.07       7.44
N      20.97       5.24       9.25
N      22.66      -0.92       8.86
N      19.55       8.27       7.83
N       2.33      19.71      29.39
N      18.07      34.15       0.42
N       2.54      21.34      26.14
N      17.82      32.62       3.70
N     -10.82      14.04       9.39
N      -7.71      15.12       7.80
N      24.94      14.77       7.99
N      -4.42      14.31       9.12
N       1.84      16.90      15.39
N       1.60      20.12      17.09
N       0.28      16.27      12.15
N       3.22      20.81      20.27
N      18.65      24.58       8.17
N      18.83      21.42       6.36
N      17.13      27.58       6.75
N      20.25      18.39       7.78
N       3.92      32.71       9.77
N      17.16      -3.99       8.28
N       3.71      31.08      13.02
N      17.40      -2.45       4.99
N     -11.91       0.66      29.76
N       3.90      15.05       0.90
N      10.28      15.40       0.70
N     -18.30       0.39      30.04
N      14.48      -2.20      23.77
N      14.72      -5.42      22.06
N      16.04      -1.57      27.00
N      13.10      -6.11      18.89
N      16.57       5.59       0.53
N      16.40       8.75       2.34
N      18.09       2.59       1.95
N      14.98      11.78       0.91
N      -2.24      23.22      22.48
N      -5.41      22.20      23.96
N      -2.03      24.85      19.22
N      -5.65      20.66      27.25
N      23.66      17.55       2.48
N      26.76      18.63       0.89
N      20.37      18.28       1.08
N      30.05      17.82       2.20
N      -2.73      20.41       8.47
N      -2.97      23.63      10.18
N      -4.29      19.78       5.24
N      -1.35      24.32      13.35
N      14.08      28.09       1.25
N      -4.65       9.46      29.90
N      -6.34      15.62      30.30
N      15.68      21.90       0.87
