29

N      12.28       0.02       0.11
N      11.18      -0.03      -0.75
Zn       6.09       0.01      -2.18
N       8.65      -1.57      -1.45
N       7.41      -1.67      -2.06
Cl       5.92       0.01      -4.42
Zn      12.14      -0.02       2.18
Cl      12.28       0.00       4.43
C       7.41      -2.80      -2.76
Zn       9.10      -0.03       0.02
C       9.36      -2.61      -1.83
N       9.58      -1.57       1.46
N      10.82      -1.68       2.05
C      10.82      -2.81       2.76
C       8.86      -2.60       1.85
N       9.55       1.55       1.49
N      10.80       1.66       2.07
C      10.82       2.80       2.77
C       8.85       2.60       1.86
N       8.67       1.54      -1.47
C       9.38       2.59      -1.85
N       7.43       1.66      -2.06
C       7.43       2.80      -2.77
N       5.94       0.01      -0.11
N       7.04      -0.05       0.75
C       4.86       0.01       0.64
C       6.53      -0.08       1.99
C      13.36       0.02      -0.64
C      11.69      -0.07      -1.99
