29

N      15.26       5.15      12.20
N      14.70       6.09      11.34
Zn      12.18      10.54       9.92
N      12.11       7.55      10.65
N      11.39       8.56      10.04
Cl      12.08      10.72       7.69
Zn      15.19       5.29      14.28
Cl      15.28       5.18      16.53
Zn      13.69       7.92      12.08
C      10.43       7.99       9.32
C      11.58       6.41      10.27
N      12.57       6.77      13.59
N      13.09       5.63      14.17
C      12.11       5.06      14.87
C      11.31       6.87      13.97
N      15.27       8.29      13.52
N      15.98       7.28      14.13
C      16.93       7.85      14.87
C      15.78       9.43      13.92
N      14.80       9.07      10.59
C      15.27      10.80       9.32
N      14.28      10.22      10.02
C      16.06       8.98      10.22
N      12.12      10.70      11.98
N      12.68       9.75      12.84
C      11.56      11.63      12.73
C      12.41      10.19      14.08
C      15.81       4.22      11.46
C      14.96       5.65      10.10
