10

C      10.43       7.99       9.32
C      11.58       6.41      10.27
Zn       9.13       5.27       9.25
C       6.13       5.06       9.33
C       6.93       6.86      10.24
C      10.82       2.78       9.34
C       8.86       2.58      10.26
N      10.50       6.62       9.43
N       7.28       5.81       9.42
N       9.60       3.42       9.44
