10

Zn      -0.01      10.56      21.35
N      -1.38       9.22      21.54
N       1.84      10.03      21.52
N      -0.47      12.42      21.55
C      -1.31       7.85      21.43
C      -2.45       9.43      22.39
C       3.00      10.78      21.42
C       2.19       8.97      22.32
C      -1.69      13.06      21.44
C       0.26      13.25      22.37
