70

Gd       9.15      15.87       3.08
Gd       9.14      15.87       8.70
N       6.57      20.36      10.13
Zn       7.22      19.22       3.41
Zn       7.21      12.52       3.41
Zn      12.99      15.87       3.41
Zn      13.00      15.87       8.70
Zn       7.21      12.52       8.69
Zn       7.22      19.23       8.65
C      10.10      19.08       2.63
C       5.93      15.10       2.58
C      11.42      13.45       2.60
Cl       9.16      15.87       6.04
Cl       9.16      15.88       0.41
O       9.12      18.39       3.13
O       8.00      20.54       4.91
O       7.03      14.59       3.02
O       5.81      12.79       4.92
O      11.31      14.67       3.03
O      13.54      14.52       4.92
C      11.41      18.28       9.49
C      10.08      12.68       9.46
C       5.96      16.64       9.53
O      11.30      17.06       9.06
O      13.59      17.22       7.18
O       9.12      13.36       8.92
O       7.97      11.18       7.19
O       7.07      17.15       9.09
O       5.82      18.92       7.18
C      10.08      19.06       9.44
C       5.95      15.11       9.53
C      11.41      13.46       9.50
O       9.12      18.38       8.88
O       7.97      20.58       7.18
O       7.07      14.60       9.08
O       5.83      12.82       7.18
O      11.29      14.68       9.06
O      13.61      14.52       7.19
C      11.43      18.31       2.61
C      10.08      12.67       2.63
C       5.93      16.65       2.58
C       7.54      20.19       6.04
C       6.30      12.49       6.05
C      13.55      15.09       6.06
O      11.33      17.09       3.03
O      13.64      17.21       4.92
N       6.57      20.37       1.96
O       9.11      13.36       3.15
O       7.98      11.19       4.91
N       6.55      11.38       1.96
O       7.04      17.15       3.03
O       5.80      18.96       4.91
C      13.57      16.65       6.05
N      14.31      15.84       1.97
C       6.72      20.10      11.46
C       7.54      11.55       6.05
C       6.29      19.26       6.04
C       6.73      20.11       0.63
C       5.87      21.54       1.99
C       6.71      11.64       0.63
C       5.85      10.20       1.98
C      14.00      15.89       0.64
C      15.67      15.80       1.99
C      14.01      15.86      11.47
C      15.68      15.87      10.12
C       6.70      11.63      11.47
C       5.85      10.20      10.11
N      14.32      15.87      10.14
C       5.87      21.53      10.10
N       6.55      11.37      10.14
