10

N       1.84      10.03      14.79
C      -1.31       7.85      14.87
C      -2.45       9.43      13.92
C       2.99      10.79      14.88
N      -0.46      12.42      14.77
Zn      -0.01      10.55      14.96
C       2.20       8.97      13.99
C      -1.68      13.06      14.87
C       0.28      13.26      13.97
N      -1.39       9.23      14.77
