10

C      10.82       2.80       2.77
C       8.85       2.60       1.86
Zn       9.15       5.31       2.86
C      10.44       8.01       2.78
N      10.52       6.64       2.68
N       7.30       5.83       2.68
N       9.59       3.44       2.67
C      11.59       6.43       1.84
C       6.15       5.07       2.77
C       6.94       6.88       1.86
