10

N      10.95       5.81      14.78
Zn       9.11       5.27      14.96
C       7.42       2.79      14.87
C       9.37       2.58      13.95
C       7.82       7.99      14.88
C       6.67       6.41      13.94
C      12.11       5.06      14.87
C      11.31       6.87      13.97
N       8.65       3.41      14.77
N       7.74       6.62      14.78
