13

O       9.43       7.35       0.80
O      10.39       5.97       2.26
C      14.17       7.63       1.45
C      12.94       7.06       1.76
H      15.06       7.44       2.05
C      12.00       8.23      -0.13
C      13.26       8.73      -0.39
H      13.45       9.39      -1.23
H      12.83       6.38       2.61
C      11.83       7.39       0.98
C      10.47       6.87       1.36
H      11.15       8.50      -0.75
N      14.32       8.46       0.40
