55

H       5.64      19.02       4.52
H       4.62      17.05       5.64
H       1.32      19.51       6.92
H       2.35      21.47       5.87
H       6.76      21.05       5.20
H       5.18      24.50       3.35
H      -2.15      17.46      11.56
H      -0.44      19.45      14.86
H       1.60      18.70      13.15
H       2.08      19.12      11.01
H      -0.75      15.98      10.25
H       0.26      15.61       8.03
H       3.18      18.67       8.86
H       1.85      10.31       1.38
H       3.93      11.00       4.99
H       1.16      12.82       2.32
H       2.88      12.43       6.61
H       1.96      14.70       3.04
H       1.84      16.75       4.39
H       2.84      14.51       7.94
H       3.11      22.73       3.84
C       2.45      13.43       4.73
C       3.26      11.12       4.14
N      -1.70      18.47      13.40
N      -0.07      17.94      11.99
N       2.33      17.00       6.98
N       3.08      10.24       3.16
N       2.52      12.25       3.92
C       2.90      18.14       6.35
N       6.40      22.93       4.23
C       4.70      19.12       5.05
C       4.12      18.02       5.67
N       4.73      21.52       4.62
C       4.06      20.37       5.12
C       2.84      20.50       5.78
C       2.26      19.39       6.38
C       6.08      21.74       4.72
C       0.53      18.60      13.06
C      -0.49      18.92      13.92
C       5.21      23.51       3.80
C       0.09      16.58       9.94
C       0.67      16.37       8.69
C      -1.42      17.89      12.24
C       0.58      17.60      10.76
C       2.31      18.09       9.15
C       2.19      10.83       2.27
C       1.69      18.35      10.37
C       1.83      12.07       2.73
C       1.78      17.13       8.27
C       2.33      15.78       6.26
C       2.16      14.65       4.11
C       2.08      15.81       4.88
C       2.62      14.55       6.87
C       4.17      22.65       4.04
C       2.67      13.38       6.11
