55

C       6.50       3.35      15.86
C       4.70       2.37      17.15
C       5.27       3.47      16.53
C       7.14       2.10      15.82
C       5.33       1.12      17.08
C       6.56       0.99      16.42
C       3.32      -0.25      17.48
C       4.19      -2.02      18.41
C      10.81       3.60       9.96
C       9.89       2.57       8.28
C       8.87       2.89       9.14
C       8.82       3.89      11.44
C       7.70       3.14      11.84
C       9.31       4.90      12.27
C       8.72       5.12      13.51
C       7.09       3.40      13.05
C       7.62       4.36      13.93
C       7.07       5.71      15.95
C       7.21      10.66      19.93
C       6.13      10.36      18.06
C       7.57       9.42      19.48
C       6.94       8.06      17.48
C       6.73       8.11      16.09
C       7.24       6.84      18.09
C       7.32       5.68      17.33
C       6.78       6.94      15.33
H       2.64       0.44      17.00
H       4.21      -3.01      18.85
H      11.54       4.03      10.64
H       9.84       2.04       7.35
H       4.77       4.44      16.56
H       8.08       1.98      15.28
H       7.05       0.02      16.33
H       7.79       2.79       9.05
C       5.23      -1.16      18.16
H       7.55      11.18      20.82
H       7.31       2.36      11.19
H      10.15       5.51      11.95
H       9.13       5.88      14.17
H       6.21       2.82      13.34
H       7.43       6.79      19.16
H       7.56       4.74      17.81
H       6.56       6.98      14.26
H       6.29      -1.25      18.36
H       6.52       9.06      15.60
H       5.47      10.49      17.21
H       8.24       8.67      19.89
N       3.00      -1.45      17.97
N      11.09       3.02       8.80
N       9.47       3.54      10.22
N       7.07       4.49      15.23
N       6.32      11.24      19.04
N       6.88       9.24      18.28
H       3.76       2.47      17.69
N       4.66      -0.03      17.59
