55

C       9.41      11.07      16.14
C       9.99       9.97      16.76
C      11.85      11.34      17.48
C      10.04      12.32      16.22
C      11.27      12.45      16.88
C       8.02      13.68      15.83
C       8.88      15.47      14.91
C      15.52       9.85      23.34
C      14.60      10.88      25.02
C      13.58      10.57      24.16
C      13.53       9.57      21.86
C      12.41      10.31      21.46
C      14.02       8.55      21.04
C      13.43       8.33      19.79
C      11.80      10.05      20.25
C      12.33       9.09      19.37
C      11.78       7.73      17.36
C      11.96       2.78      13.37
C      10.88       3.06      15.24
C      12.31       4.02      13.83
C      11.68       5.37      15.83
C      11.47       5.33      17.21
C      11.96       6.60      15.21
C      12.03       7.76      15.97
C      11.50       6.50      17.97
C       9.93      14.61      15.14
H       8.47      10.97      15.60
H       9.49       9.00      16.72
H      12.79      11.46      18.02
H      11.75      13.42      16.97
H       7.35      12.99      16.32
H       8.90      16.45      14.48
H      16.25       9.42      22.66
H      14.55      11.41      25.96
H      12.50      10.67      24.26
H      12.02      11.08      22.11
H      14.86       7.94      21.35
H      13.85       7.57      19.13
H      10.92      10.62      19.95
H      12.31       2.26      12.49
H      10.22       2.93      16.09
H      12.98       4.78      13.42
H      11.26       4.38      17.71
H      12.16       6.66      14.14
H      12.26       8.70      15.49
H      11.28       6.46      19.04
H      10.99      14.69      14.93
N      15.80      10.44      24.50
N      14.17       9.91      23.08
N      11.78       8.95      18.08
N      11.08       2.18      14.26
N      11.62       4.20      15.02
N       7.70      14.88      15.36
N       9.37      13.47      15.72
C      11.21      10.09      17.44
