29

N      -1.31      -1.64       7.10
C      -2.10       3.92      12.57
N       4.05      -1.31      11.63
C      -2.29       4.77      10.41
Co      -0.60       2.25      10.68
Co      -0.39      -0.54       8.66
C      -2.64       0.19      10.49
Co       2.31      -0.37      10.92
O      -2.34      -0.04       9.28
O      -2.03       0.99      11.28
O       0.62       0.63      10.03
O      -0.55      -2.15       9.93
O       1.47      -1.12       7.87
O       2.49       1.13      12.25
O       0.66       2.51      12.22
O       3.13      -0.13       9.11
O       1.24      -1.98      11.36
O      -0.34       1.11       7.38
O      -0.56       2.91       8.81
C      -2.45      -1.21       6.52
C      -0.71      -2.74       6.58
C       1.77       2.10      12.67
C       0.18      -2.53      10.90
C       2.57      -0.48       8.01
C       4.58      -2.31      10.89
C       4.60      -1.05      12.84
H       1.15       1.15       9.39
C      -0.50       2.35       7.65
N      -1.71       3.90      11.27
