29

N       7.66      16.81       2.69
N       8.81      11.57      -1.84
C      12.43      13.43      -1.29
N      14.25      12.69       2.33
O      11.20      13.25      -1.55
Co      12.36      13.31       1.74
Co       9.62      12.75      -0.28
O      12.99      13.53      -0.13
Co       9.05      15.40       1.98
O      10.47      14.04       1.09
O       8.11      12.16       1.00
O       8.56      14.38      -1.06
O      10.43      15.97       3.31
C      11.57      15.55       3.73
O      12.28      14.60       3.28
O       9.05      16.24       0.18
C       7.55      12.75       1.97
O       7.79      13.92       2.43
O      10.63      11.01       0.34
O      11.54      11.60       2.34
C       8.87      15.61      -0.93
C       6.55      17.05       1.96
C       7.77      17.41       3.91
H      10.82      14.69       0.46
C       9.53      10.58      -2.42
C       7.59      11.84      -2.35
C      14.38      12.32       3.63
C      15.24      12.37       1.47
C      10.93      10.79       1.56
