29

N      -1.22       7.21       1.10
C       2.40       7.03       3.02
C       0.91      10.66       1.65
N       4.22      10.66       3.70
N      -2.37       9.44       7.65
O       0.61       9.45       1.40
O       1.52      11.08       2.69
Co       2.33       9.88       4.06
Co      -0.40       8.23       2.78
Co      -0.98       9.32       6.08
C      -0.49       7.05      -0.04
C      -2.44       6.64       1.15
C       4.35      12.00       3.84
C       5.21       9.98       3.08
O       0.45       9.00       4.49
O      -1.92       9.62       2.71
O      -1.47       6.88       3.99
O       0.41      10.33       7.11
O       2.24      10.82       5.82
O      -0.99       7.32       6.19
O      -2.24      10.27       4.89
O       1.17       6.85       2.76
O       2.96       8.06       3.55
C       1.54      10.88       6.88
C      -2.48      10.29       3.62
C      -1.16       6.54       5.18
H       0.80       8.17       4.85
C      -3.48       8.67       7.60
C      -2.27      10.34       8.67
