51

C       9.22       4.19       0.95
C       8.51      -3.22       1.67
C       7.80      -4.37       1.34
H       9.59       0.76       2.35
H      13.67      -2.07       5.05
C      11.38      -2.10       2.92
H       9.69       4.52       4.31
H      14.60      -6.76       3.66
C       7.77      -3.44       3.98
C      14.13      -4.76       2.99
C      14.41      -5.73       3.95
C      10.20       3.25       0.66
H      14.11      -5.01       1.93
H      10.35       2.86      -0.34
H      13.77      -0.04       1.57
C      10.84       3.21       3.02
H       7.79      -4.71       0.30
C      14.20      -4.06       5.70
H      11.26      -3.10       3.31
H       8.57       4.57       0.17
O       7.62       5.80       3.77
H       9.07      -2.67       0.91
H      14.23      -3.81       6.76
H      11.48       2.82       3.80
H       7.77      -3.06       5.00
H       6.54      -5.15       4.41
O       6.11      -6.68       0.77
C      13.88      -3.45       3.39
O      14.93      -6.11       7.56
O      13.72      -2.50       2.39
C      14.48      -5.38       5.31
O      15.33      -7.55       5.90
O       9.07      -1.56       3.38
O       7.23       5.97       1.53
O       5.83      -7.02       2.92
C       8.48      -2.75       2.99
C      10.45       0.09       2.38
O      11.93       1.76       1.40
C      13.89      -3.09       4.75
C       9.02       4.64       2.26
C      12.62      -1.65       2.45
C      14.92      -6.39       6.31
C      11.70       0.50       1.92
C       6.32      -6.30       1.99
C       9.85       4.16       3.29
C      10.98       2.75       1.70
C       7.08      -4.60       3.64
C       7.08      -5.08       2.32
C      12.80      -0.36       1.94
C      10.31      -1.21       2.87
C       7.87       5.55       2.55
