51

C      10.54      12.38      17.14
H       8.58      14.95      14.02
C      10.86      14.97      16.15
H      14.48      15.93      14.07
H      12.56       8.35      14.76
C      15.92      19.18      17.08
C      11.80      12.78      16.69
H       8.02      16.69      12.31
C      13.76      15.63      16.08
H      11.90      10.02      19.41
C       7.33      19.26      12.75
C       7.77      18.26      13.76
H      13.18      15.55      18.16
C       8.36      16.32      15.68
H       7.65      19.64      15.41
C      11.27      10.13      17.36
H      10.99      15.98      15.76
H       8.14      17.88      17.14
C      13.02       8.68      18.12
H      10.77      10.06      15.27
C      11.94      14.08      16.20
C      14.45      17.24      17.73
H      15.71      18.03      14.66
O       6.92      20.42      13.17
O       8.53      15.38      16.68
O      16.42      19.90      16.14
H       8.48      12.92      17.49
H      13.68       8.30      18.89
O      10.32      11.12      17.67
O      16.13      19.56      18.29
H      12.66      12.12      16.71
H      14.45      17.59      18.76
O      15.02       6.90      17.54
O      14.63       7.08      15.29
C      15.17      17.48      15.42
O      13.18      14.43      15.69
C      14.48      16.32      15.09
C       9.62      14.53      16.62
O       7.32      18.99      11.51
C      13.73      16.09      17.40
C       9.44      13.24      17.13
C      15.17      17.95      16.75
C      12.40       8.72      15.77
C      13.22       8.24      16.80
C      14.37       7.33      16.52
C      12.04       9.63      18.41
C       8.12      17.64      16.08
C      11.41       9.66      16.05
C       8.35      15.97      14.32
C       7.83      18.61      15.11
C       8.05      16.94      13.37
