38

N       5.99       0.81      16.85
O       4.36       0.95      23.04
O       2.95      -0.68      22.27
O       8.41       6.11      13.99
O       6.51       6.86      15.01
H       6.54      -3.54      13.84
H       5.52      -1.49      12.89
H       5.24       0.54      14.32
H       7.16      -1.48      17.58
H       7.37      -3.54      16.19
H       8.10       1.36      15.28
H       8.68       3.58      14.33
H       5.25       5.31      16.23
H       4.64       3.09      17.19
H       6.40       2.45      18.92
H       5.53       2.15      21.22
H       3.45      -1.39      19.98
H       4.34      -1.13      17.69
C       6.45      -2.65      14.45
C       5.87      -1.49      13.92
C       5.72      -0.35      14.71
C       6.17      -0.35      16.04
C       6.79      -1.50      16.56
C       6.91      -2.64      15.77
C       6.33       2.08      16.31
C       7.47       2.22      15.49
C       7.80       3.46      14.96
C       7.01       4.59      15.23
C       5.87       4.44      16.04
C       5.53       3.20      16.57
C       5.45       0.67      18.14
C       5.75       1.61      19.15
C       5.25       1.45      20.44
C       4.42       0.36      20.75
C       4.10      -0.56      19.74
C       4.60      -0.41      18.45
C       3.87       0.19      22.11
C       7.37       5.94      14.68
