10

H       2.14       0.68      12.17
H       4.64       0.70      12.03
H       4.66      -3.46      11.83
H       2.14      -3.47      11.85
N       2.00      -1.39      12.01
N       4.79      -1.38      11.94
C       2.70      -0.25      12.09
C       4.09      -0.24      12.04
C       4.09      -2.53      11.90
C       2.70      -2.54      11.92
