22

H       1.70      14.44      11.13
H      -1.72      18.17       8.76
H      -2.19      15.41      12.66
H       2.17      17.20       7.21
H      -2.55      17.04      10.81
H       2.54      15.58       9.07
C      -0.05      13.88      13.13
C       0.02      18.75       6.76
C      -0.21      14.85      12.01
C       0.19      17.77       7.87
C      -1.42      15.58      11.91
C       1.40      17.03       7.97
C      -1.62      16.47      10.89
C       1.60      16.14       8.99
C       0.61      15.93       9.99
C      -0.62      16.68       9.89
C       0.79      15.02      11.06
C      -0.81      17.59       8.82
O      -1.12      13.57      13.75
O       1.09      19.07       6.15
O       1.13      13.46      13.41
O      -1.15      19.19       6.51
