22

H       5.06      10.04      18.71
H       1.66       6.30      21.10
H       1.16       9.07      17.19
H       5.56       7.28      22.61
H       0.81       7.43      19.04
H       5.91       8.89      20.74
C       3.30      10.61      16.72
C       3.41       5.75      23.10
C       3.14       9.63      17.84
C       3.57       6.72      21.97
C       1.93       8.90      17.94
C       4.79       7.45      21.86
C       1.74       8.00      18.96
C       4.98       8.33      20.83
C       3.97       8.54      19.85
C       2.75       7.79      19.95
C       4.14       9.46      18.78
C       2.57       6.88      21.02
O       2.24      10.92      16.09
O       4.48       5.45      23.72
O       4.47      11.06      16.48
O       2.24       5.33      23.37
