48

H      10.92       1.54      14.96
H       6.06       7.01      16.36
H       7.84      -2.95      19.75
H      13.22       5.56      13.56
H       7.58       2.62      17.49
H       4.09       8.43      16.82
H      13.98       3.88       9.00
H       8.43      -0.76      18.69
H      12.07       2.94      10.33
H       8.51      -4.99      16.21
H       9.22      -2.89      15.04
H       3.63       6.83      20.63
H       5.63       5.38      20.35
H      15.04       6.43      12.10
H       9.65       5.65      15.23
N      14.58       5.22      10.47
N       3.77       7.73      18.76
N       8.11      -4.06      18.02
O       9.11       0.68      16.81
O       7.71       5.28      16.87
O      10.39       3.03      12.33
O       9.35      -0.40      14.79
O       7.76       4.59      19.08
O      11.39       4.06      14.14
C      13.35       5.17      12.55
C       7.21       5.24      18.18
C       5.32       6.05      19.55
C       9.25       1.97      16.28
C      12.72       3.71      10.74
C       8.55       4.25      16.44
C       8.37       2.92      16.82
C       8.92      -2.88      16.08
C      10.36       3.63      14.99
C       4.21       6.86      19.71
C       6.05       6.09      18.34
C       5.55       6.95      17.32
C       4.46       7.74      17.58
C       8.52      -4.04      16.74
C       8.48      -1.68      18.12
C       8.13      -2.89      18.70
C       8.86      -1.66      16.77
C      12.47       4.20      12.04
C       9.54       4.62      15.53
C      10.25       2.30      15.37
C       9.14      -0.43      16.00
C      11.32       3.68      12.80
C      14.36       5.66      11.74
C      13.76       4.23      10.01
