48

C       4.81       2.83       3.92
C       4.58       0.37       4.00
C       5.20       3.98       3.26
C       5.25       1.62       1.88
C       3.37      -3.69       5.01
C       9.27      -7.79       2.42
C       5.35      -2.97       3.18
C      -0.04      -4.29       9.99
C       8.17      -7.00       2.67
C      -0.64      -5.71       8.26
C       0.38      -5.22       7.45
C       4.87       1.60       3.23
C       5.60       2.84       1.30
C       4.19      -4.67       4.47
C       9.51      -6.91       0.28
C       2.41      -3.74       7.20
C       6.51      -5.29       1.82
C       5.17      -4.31       3.56
C       3.47      -2.35       4.63
C       1.01      -3.76       9.26
C       7.68      -6.14       1.66
H       7.67      -7.07       3.63
H       1.66      -3.00       9.67
N      -0.85      -5.27       9.52
H       9.64      -8.48       3.18
N       9.95      -7.79       1.24
N       5.61       4.01       1.97
H       5.88       2.89       0.25
H      10.09      -6.89      -0.64
H       4.07      -5.71       4.77
H       4.51       2.84       4.96
H       5.30       0.70       1.30
H       5.22       4.94       3.79
H      -1.31      -6.48       7.90
H       0.50      -5.61       6.44
O       6.01      -5.33       3.13
H       2.81      -1.60       5.04
O       4.62      -0.74       3.18
O       4.37       0.35       5.20
H       6.15      -2.67       2.51
O       3.33      -3.09       7.67
H      -0.26      -3.93      11.00
O       5.96      -4.64       0.92
H       8.09      -5.43      -0.35
O       2.33      -4.11       5.86
C       4.48      -2.03       3.72
C       8.41      -6.10       0.45
C       1.25      -4.25       7.95
