13

N      10.99       9.29       4.32
H      11.87       8.22       2.78
H      10.87       6.01       3.48
H       9.40       5.97       5.52
H      10.01      10.21       5.90
O       8.45       9.29       7.54
O       8.49       7.03       7.70
C      11.22       8.13       3.65
C      10.67       6.92       4.05
C       9.84       6.89       5.17
C       9.60       8.09       5.87
C      10.19       9.27       5.40
C       8.78       8.10       7.13
