13

C      18.47       6.40       1.31
C      18.04       5.64       0.09
C      16.92       6.06      -0.64
C      16.49       5.30      -1.73
C      17.19       4.15      -2.06
C      18.70       4.48      -0.31
O      19.66       6.11       1.76
O      17.69       7.23       1.84
H      16.38       6.96      -0.35
H      15.62       5.60      -2.31
H      16.91       3.52      -2.90
H      19.59       4.12       0.21
N      18.28       3.75      -1.36
