13

O      18.60      11.83      13.23
O      20.59      12.92      13.25
N      17.28      14.02       9.99
C      18.10      14.93       9.41
C      19.40      15.13       9.85
C      19.87      14.38      10.93
C      19.01      13.45      11.54
H      17.68      15.47       8.57
H      20.04      15.86       9.36
C      17.72      13.30      11.04
H      17.02      12.58      11.46
H      20.88      14.50      11.30
C      19.46      12.68      12.75
