13

C      20.71      10.50       9.28
C      19.36       8.28       5.91
H      21.76       8.13       7.24
H      17.94      10.13       7.36
H      18.79      11.47       9.30
H      21.13      11.04      10.12
O      18.27       8.54       5.36
O      20.21       7.38       5.50
C      19.41      10.72       8.82
C      21.07       8.86       7.66
C      19.79       9.04       7.13
C      18.94       9.98       7.73
N      21.51       9.57       8.72
