13

O       5.32       3.89      13.40
H       2.59       6.23       8.49
H       5.00       6.47       9.19
H       5.78       5.22      11.22
N       2.11       4.92      10.02
H       1.79       3.61      11.60
C       4.25       3.60      12.83
C       2.99       5.71       9.36
C       4.32       5.83       9.75
C       4.76       5.13      10.88
C       3.84       4.32      11.57
C       2.53       4.24      11.11
O       3.38       2.71      13.24
