13

C       6.94       4.64       3.70
C       6.02       4.12       5.74
C       5.95       5.48       5.79
C       6.57       3.65       4.53
C       5.43       6.33       6.89
C       7.64       4.53       2.39
O       5.01       5.76       7.91
O       5.50       7.56       6.74
O       8.18       5.57       1.94
S       6.58       6.19       4.37
O       7.65       3.40       1.85
H       5.74       3.57       6.43
H       6.66       2.74       4.32
