13

C       2.22       1.04       5.15
C       1.59       1.54       4.00
S       2.42       3.59       5.29
H       2.29       0.13       5.35
H       1.19       1.00       3.36
O       3.59       2.91       7.96
O       3.73       0.74       7.63
O       0.61       3.31       1.84
O       1.21       5.04       3.08
C       2.72       2.04       5.95
C       3.39       1.90       7.25
C       1.63       2.90       3.94
C       1.12       3.80       2.89
