972

C       0.77      47.10      13.91
C       0.12      47.93      16.05
C       0.06      49.39      14.17
C       0.96      21.44       9.54
C       0.23      22.85       7.75
C       0.43      20.51       7.39
C       0.70      30.39      33.95
C       0.08      28.12      33.60
C       9.90      29.03      35.79
C       0.72     -14.46      43.55
C       0.10     -15.29      41.40
C       9.92     -16.74      43.29
C       0.76      11.23      47.99
C       0.12       9.79      49.78
C       0.06      12.15      50.10
C       0.97       2.21      23.57
C       0.23       4.45      23.91
C       0.43       3.60      21.69
C       0.68      14.03      43.24
C       9.70      14.67      41.13
C       9.69      16.23      42.94
C       0.66     -11.75      48.34
C       9.69     -10.25      49.97
C       9.65     -12.60      50.39
C       0.74      -3.28      23.54
C       9.68      -5.41      24.00
C       9.62      -4.53      21.77
C       0.72      18.67      14.27
C       9.67      17.98      16.34
C       9.61      16.51      14.47
C       0.68      44.39       9.11
C       9.70      42.88       7.50
C       9.69      45.23       7.06
C       0.65      35.90      34.00
C       9.69      38.06      33.51
C       9.65      37.26      35.76
C       8.67      51.66       9.49
C       9.36      52.76       7.49
C       8.66      50.48       7.41
C       8.84      15.35       7.60
C       9.41      13.04       7.74
C       8.68      14.21       9.69
C       8.66      31.96      40.11
C       9.36      33.13      42.07
C       8.66      34.35      40.14
C       8.68     -19.03      47.96
C       9.37     -20.13      49.96
C       8.67     -17.85      50.04
C       8.68      17.34      49.73
C       9.37      19.62      49.68
C       8.67      18.55      47.67
C       8.84       0.84      17.33
C       9.40      -0.44      15.40
C       8.68      -1.54      17.39
C       9.85      46.89      23.85
C       9.77      47.99      21.73
C       9.58      49.25      23.76
C       9.82      30.10       4.71
C       9.73      27.72       4.84
C       9.56      28.83       2.72
C       9.84      21.86      28.82
C       9.77      23.16      30.82
C       9.59      20.77      30.92
C       9.86     -14.27      33.60
C       9.78     -15.36      35.71
C       9.61     -16.63      33.69
C       9.85       2.52      52.80
C       9.77       4.90      52.68
C       9.59       3.78      54.79
C       9.80      10.71      28.66
C       9.71       9.41      26.67
C       9.53      11.80      26.57
C       9.83      13.39      33.39
C       9.45      14.44      35.49
C       9.67      15.75      33.51
C       9.84      -2.91      52.76
C       9.45      -5.26      52.61
C       9.66      -4.20      54.75
C       9.82     -11.51      28.92
C       9.43     -10.21      26.97
C       9.64     -12.59      26.81
C       9.80      19.18      24.10
C       9.42      18.13      21.99
C       9.62      16.81      23.97
C       9.82      35.53       4.75
C       9.44      37.88       4.89
C       9.65      36.81       2.76
C       9.85      44.13      28.52
C       9.46      42.84      30.48
C       9.68      45.21      30.63
C       9.91      59.06       2.91
C       9.88      57.84       4.97
C       0.00      60.24       4.98
C       9.89       5.88       4.63
C       9.86       8.28       4.65
C       0.00       7.08       2.56
C       9.92      33.95      49.81
C       9.89      32.77      47.72
C       0.02      31.56      49.80
C       9.92     -26.43      54.55
C       9.89     -25.21      52.48
C       0.02     -27.61      52.47
C       0.00      26.75      52.83
C       9.89      24.35      52.81
C       0.03      25.55      54.89
C       9.89      -1.32       7.65
C       9.86      -0.15       9.73
C       9.91       1.07       7.66
C       9.36      50.41      13.42
C       7.92      50.45      11.50
C       8.69      51.46      10.89
C       0.18      51.48      12.85
C       1.36      51.92      13.41
C       3.33      50.89      14.06
C       9.87      19.31       6.83
C       8.17      17.71       7.39
C       9.02      16.64       7.05
C       0.82      18.23       6.50
C       2.16      18.38       6.17
C       3.02      19.59       4.40
C       9.30      29.16      37.06
C       7.88      30.83      38.06
C       8.66      30.85      39.24
C       0.12      29.11      38.27
C       1.29      28.40      38.37
C       3.27      28.37      37.15
C       9.32     -17.78      44.02
C       7.90     -17.83      45.96
C       8.69     -18.83      46.56
C       0.16     -18.84      44.59
C       1.34     -19.27      44.02
C       3.27     -18.22      43.28
C       9.37      13.31      50.61
C       7.93      15.00      49.68
C       8.70      16.03      50.25
C       0.19      14.33      51.25
C       1.37      14.07      51.91
C       3.33      12.97      51.35
C       9.88       3.48      20.38
C       8.16       2.21      19.27
C       9.02       1.96      18.17
C       0.83       3.22      19.28
C       2.17       3.55      19.25
C       3.14       5.64      19.28
C       9.02      17.19      43.71
C       9.57      18.88      45.37
C       8.64      18.34      46.27
C       7.96      16.77      44.57
C       7.15      15.67      44.35
C       5.23      15.59      43.07
C       8.98     -13.75      50.85
C       9.55     -16.02      51.49
C       8.62     -16.54      50.56
C       7.93     -14.28      50.05
C       7.12     -13.55      49.20
C       5.20     -12.39      49.76
C       8.93      -4.28      20.57
C       9.43      -3.77      18.25
C       8.60      -2.63      18.30
C       7.98      -3.22      20.56
C       7.24      -2.77      21.64
C       5.29      -3.72      22.42
C       8.91      15.59      13.65
C       9.42      13.84      12.05
C       8.60      14.45      11.08
C       7.97      16.11      12.72
C       7.22      17.27      12.88
C       5.30      17.44      14.13
C       9.01      46.38       6.60
C       9.56      48.66       5.97
C       8.62      49.17       6.89
C       7.95      46.90       7.40
C       7.14      46.17       8.24
C       5.22      45.02       7.67
C       8.99      37.10      36.99
C       9.56      36.51      39.27
C       8.62      35.46      39.26
C       7.92      36.15      37.05
C       7.10      35.79      36.00
C       5.20      36.90      35.31
C       1.06      46.17      12.88
C       1.63      46.12      10.54
C       1.09      44.83      10.40
C       0.75      44.78      12.80
C       0.20      44.11      13.87
C       7.92      44.50      14.47
C       1.21      21.03      10.87
C       1.80      19.06      12.13
C       1.17      19.57      13.29
C       0.80      21.65      12.09
C       0.19      22.88      12.10
C       7.90      23.04      11.44
C       1.00      31.75      33.65
C       1.58      33.79      34.78
C       1.05      34.57      33.73
C       0.70      32.51      32.49
C       0.16      31.92      31.37
C       7.88      31.22      31.40
C       1.03     -13.53      44.57
C       1.61     -13.48      46.91
C       1.07     -12.18      47.06
C       0.72     -12.14      44.65
C       0.17     -11.47      43.59
C       7.89     -11.86      42.99
C       1.05      11.65      46.67
C       1.63      13.65      45.46
C       1.09      13.13      44.26
C       0.74      11.03      45.43
C       0.19       9.77      45.38
C       7.92       9.44      46.02
C       1.22       0.85      23.89
C       1.82      -1.22      22.81
C       1.20      -1.97      23.84
C       0.82       0.10      25.03
C       0.20       0.71      26.10
C       7.91       1.34      25.90
C       9.84      47.99      20.30
C       9.90      46.68      18.26
C       0.02      47.85      17.47
C       0.01      49.16      19.50
C       0.14      50.45      19.96
C       2.12      51.07      21.01
C       9.82      26.49       5.56
C       0.00      25.39       7.72
C       0.06      24.12       7.12
C       9.90      25.20       4.96
C       0.09      24.94       3.61
C       2.09      25.52       2.57
C       9.84      24.40      31.53
C       9.87      26.82      31.41
C       9.92      26.93      32.82
C       0.01      24.51      32.95
C       0.16      23.47      33.84
C       2.14      22.26      33.86
C       9.85     -15.36      37.15
C       9.90     -14.05      39.18
C       0.02     -15.21      39.98
C       0.03     -16.53      37.95
C       0.16     -17.82      37.49
C       2.15     -18.44      36.47
C       9.85       6.14      51.96
C       9.90       7.25      49.81
C       0.03       8.52      50.42
C       0.02       7.42      52.57
C       0.15       7.67      53.92
C       2.13       7.07      54.98
C       9.80       8.16      25.96
C       9.92       5.74      26.09
C       0.04       5.63      24.68
C       9.88       8.05      24.54
C       0.06       9.09      23.64
C       2.05      10.28      23.62
C       9.32      14.43      36.91
C       0.12      13.41      38.98
C       9.50      14.47      39.73
C       8.72      15.47      37.68
C       7.99      16.54      37.20
C       5.71      16.39      36.87
C       9.33      -6.48      51.89
C       0.12      -7.76      49.97
C       9.50      -8.95      50.51
C       8.73      -7.67      52.41
C       7.99      -7.79      53.56
C       5.71      -7.40      53.54
C       9.31      -8.97      26.27
C       0.10      -6.67      26.14
C       9.48      -6.53      24.84
C       8.72      -8.82      24.98
C       7.99      -9.76      24.28
C       5.71      -9.95      24.58
C       9.30      18.15      20.57
C       0.08      19.21      18.52
C       9.47      18.15      17.74
C       8.71      17.12      19.79
C       7.98      16.04      20.25
C       5.70      16.23      20.55
C       9.31      39.10       5.61
C       0.11      40.39       7.52
C       9.49      41.57       6.98
C       8.72      40.29       5.09
C       7.98      40.40       3.93
C       5.70      40.06       3.90
C       9.33      41.60      31.19
C       0.11      39.30      31.34
C       9.49      39.18      32.64
C       8.73      41.46      32.47
C       7.99      42.41      33.15
C       5.72      42.60      32.81
C       9.81      56.58       5.66
C       9.87      54.17       5.46
C       9.63      54.00       6.84
C       9.57      56.42       7.06
C       9.29      57.44       7.93
C       7.23      58.47       7.67
C       9.80       9.51       5.39
C       9.84      10.55       7.57
C       9.65      11.84       7.01
C       9.59      10.80       4.83
C       9.33      11.05       3.50
C       7.27      10.32       2.70
C       9.82      32.80      46.29
C       9.87      34.18      44.30
C       9.63      33.07      43.46
C       9.57      31.68      45.44
C       9.30      30.41      45.89
C       7.24      30.10      46.93
C       9.82     -23.95      51.79
C       9.88     -21.54      51.99
C       9.64     -21.37      50.61
C       9.59     -23.78      50.40
C       9.32     -24.81      49.52
C       7.26     -25.85      49.75
C       9.83      23.12      52.07
C       9.89      22.09      49.88
C       9.64      20.81      50.43
C       9.58      21.83      52.62
C       9.31      21.59      53.95
C       7.25      22.34      54.72
C       9.80      -0.17      11.17
C       9.84      -1.54      13.17
C       9.64      -0.42      14.00
C       9.58       0.96      12.01
C       9.31       2.23      11.56
C       7.24       2.53      10.54
C       0.13      45.80      24.72
C       8.90      44.35      26.26
C       0.08      44.36      27.14
C       1.27      45.77      25.58
C       2.42      46.52      25.42
C       4.22      46.03      24.06
C       0.11      31.40       5.22
C       8.88      33.46       5.70
C       0.06      34.22       5.25
C       1.24      32.16       4.81
C       2.39      31.64       4.24
C       4.14      30.67       5.38
C       0.13      21.65      27.44
C       8.88      21.03      25.42
C       0.05      20.26      24.99
C       1.25      20.91      26.98
C       2.41      20.68      27.70
C       4.15      22.17      27.93
C       0.14     -13.18      32.72
C       8.89     -11.74      31.19
C       0.07     -11.74      30.31
C       1.27     -13.14      31.86
C       2.43     -13.88      32.02
C       4.17     -13.35      33.43
C       0.13       1.21      52.29
C       8.89      -0.84      51.81
C       0.07      -1.60      52.26
C       1.27       0.45      52.70
C       2.42       0.96      53.26
C       4.22       1.89      52.15
C       0.10      10.92      30.04
C       8.88      11.53      32.07
C       0.06      12.30      32.50
C       1.23      11.66      30.49
C       2.38      11.89      29.75
C       4.13      10.42      29.46
C       9.53      50.49      24.46
C       0.15     -15.02      26.54
C       9.63     -13.77      26.04
C       9.07      51.74      23.96
C       8.45      51.89      22.74
C       6.51      50.75      22.16
C       9.53      28.82       1.30
C       0.15      -3.22      56.99
C       9.65      -4.27      56.16
C       9.08      27.75       0.46
C       8.45      26.62       0.94
C       6.49      26.71       2.17
C       9.56      19.54      31.64
C       0.18      17.20      31.54
C       9.66      17.01      32.87
C       9.10      19.36      32.97
C       8.46      20.33      33.71
C       6.52      21.41      33.05
C       9.57     -17.87      32.99
C       0.20      47.64      30.91
C       9.68      46.40      31.40
C       9.11     -19.12      33.49
C       8.47     -19.27      34.70
C       6.53     -18.13      35.25
C       9.54       3.80      56.21
C       0.16      35.83       0.52
C       9.64      36.89       1.35
C       9.08       4.86      57.04
C       8.46       5.99      56.57
C       6.52       5.92      55.29
C       9.49      13.02      25.84
C       0.12      15.36      25.94
C       9.60      15.55      24.61
C       9.04      13.21      24.51
C       8.42      12.23      23.77
C       6.46      11.20      24.46
C       0.05      25.55      56.33
C       9.65      60.15       0.66
C       0.00      59.04       1.49
C       0.36      24.43      57.16
C       0.82      23.22      56.69
C       2.86      23.15      55.59
C       0.02       2.31       6.94
C       9.62       3.39       4.81
C       9.90       4.66       5.36
C       0.34       3.58       7.49
C       0.79       3.78       8.77
C       2.83       2.85       9.36
C       0.05     -28.85      51.75
C       9.65      35.34      51.88
C       0.01      35.19      50.51
C       0.37     -29.01      50.37
C       0.82     -28.00      49.56
C       2.86     -27.03      50.08
C       0.04       7.08       1.13
C       9.64     -27.52      56.79
C       9.92     -26.41      55.97
C       0.36       8.19       0.30
C       0.82       9.40       0.77
C       2.86       9.44       1.89
C       0.05      30.32      50.51
C       9.65      29.24      52.65
C       0.01      27.97      52.10
C       0.37      29.05      49.96
C       0.82      28.85      48.68
C       2.86      29.77      48.07
C       0.03      61.48       5.70
C       9.63      -2.71       5.57
C       9.90      -2.56       6.95
C       0.33      61.64       7.08
C       0.78      60.63       7.90
C       2.83      59.66       7.40
H       7.16      49.98      11.00
H       4.17      50.33      13.62
H       2.84      50.24      14.79
H       3.74      51.77      14.56
H       7.26      17.56       7.83
H       3.38      20.59       4.16
H       2.18      19.36       3.74
H       3.84      18.88       4.21
H       7.14      31.52      37.90
H       4.12      29.01      36.93
H       2.77      28.13      36.20
H       3.64      27.46      37.61
H       7.15     -17.36      46.47
H       4.10     -17.63      43.66
H       2.74     -17.61      42.54
H       3.68     -19.11      42.79
H       7.17      15.20      49.03
H       4.16      13.05      50.65
H       2.83      12.01      51.18
H       3.74      12.99      52.37
H       7.25       1.76      19.34
H       3.48       6.40      19.99
H       2.38       6.09      18.64
H       4.00       5.34      18.67
H       0.35      19.56      45.68
H       4.92      15.43      42.04
H       4.89      16.58      43.38
H       4.75      14.83      43.69
H       0.33     -16.63      51.91
H       4.89     -11.42      50.13
H       4.85     -13.15      50.46
H       4.73     -12.55      48.78
H       0.14      -3.92      17.47
H       4.95      -4.50      23.10
H       4.91      -3.96      21.42
H       4.87      -2.77      22.76
H       0.13      13.08      11.79
H       4.97      17.67      15.15
H       4.96      16.43      13.90
H       4.82      18.15      13.45
H       0.34      49.27       5.54
H       4.91      44.05       7.29
H       4.88      45.78       6.97
H       4.75      45.17       8.65
H       0.35      36.56      40.00
H       4.89      37.71      34.65
H       4.88      37.15      36.33
H       4.69      35.99      34.98
H       1.94      46.69       9.75
H       6.93      44.09      14.32
H       7.92      45.54      14.15
H       8.14      44.45      15.55
H       2.14      18.10      12.07
H       6.90      23.10      11.88
H       7.94      22.15      10.80
H       8.07      23.94      10.85
H       1.88      34.20      35.67
H       6.89      31.56      31.11
H       7.86      31.01      32.48
H       8.10      30.30      30.85
H       1.91     -14.05      47.70
H       6.90     -11.45      43.14
H       7.88     -12.90      43.35
H       8.11     -11.85      41.92
H       1.94      14.62      45.54
H       6.92       9.38      45.59
H       7.91      10.25      46.76
H       8.13       8.49      46.52
H       2.16      -1.65      21.95
H       6.91       0.99      26.17
H       7.95       1.45      24.81
H       8.07       2.31      26.37
H       9.90      45.75      17.83
H       3.07      51.55      20.78
H       2.33      50.08      21.41
H       1.61      51.68      21.76
H       0.03      25.49       8.74
H       3.03      25.06       2.26
H       2.32      26.33       3.26
H       1.60      25.92       1.68
H       9.85      27.65      30.82
H       3.11      22.24      34.36
H       2.33      22.36      32.78
H       1.64      21.31      34.05
H       9.88     -13.12      39.61
H       3.09     -18.92      36.70
H       2.37     -17.43      36.09
H       1.65     -19.02      35.68
H       9.90       7.15      48.79
H       3.08       7.51      55.28
H       2.34       6.23      54.32
H       1.62       6.72      55.88
H       0.03       4.92      26.68
H       2.99      10.32      23.07
H       2.29      10.09      24.67
H       1.56      11.25      23.52
H       0.64      12.66      39.42
H       4.98      16.14      36.10
H       5.52      17.42      37.20
H       5.55      15.71      37.71
H       0.64      -7.76      49.09
H       5.00      -6.61      53.75
H       5.48      -8.24      54.20
H       5.59      -7.70      52.50
H       0.62      -5.91      26.59
H       4.98     -10.52      25.15
H       5.51     -10.12      23.52
H       5.58      -8.89      24.81
H       0.61      19.97      18.08
H       4.97      16.44      21.34
H       5.48      15.23      20.16
H       5.57      16.97      19.76
H       0.64      40.40       8.40
H       4.97      39.26       3.73
H       5.50      40.85       3.17
H       5.54      40.44       4.91
H       0.64      38.53      30.91
H       5.00      43.18      32.22
H       5.49      42.76      33.87
H       5.58      41.55      32.56
H       0.03      53.37       4.84
H       6.23      58.46       8.11
H       7.13      58.22       6.61
H       7.63      59.48       7.77
H       9.91      10.42       8.58
H       6.28      10.72       2.48
H       7.16       9.52       3.44
H       7.69       9.91       1.78
H       0.04      35.13      43.92
H       6.24      29.74      46.70
H       7.16      31.12      47.30
H       7.65      29.46      47.72
H       0.03     -20.74      52.62
H       6.27     -25.85      49.29
H       7.14     -25.59      50.81
H       7.68     -26.86      49.67
H       0.05      22.22      48.87
H       6.25      21.96      54.94
H       7.16      23.14      53.99
H       7.67      22.74      55.65
H       9.92      -2.48      13.56
H       6.25       2.92      10.78
H       7.14       1.49      10.24
H       7.65       3.12       9.71
H       8.00      43.95      26.54
H       4.55      46.14      23.03
H       4.22      44.97      24.31
H       4.94      46.55      24.70
H       7.98      33.91       5.91
H       4.47      29.70       5.75
H       4.07      31.35       6.23
H       4.90      31.03       4.68
H       7.98      20.99      24.94
H       4.48      22.98      28.58
H       4.05      22.56      26.92
H       4.92      21.39      27.95
H       7.99     -11.35      30.91
H       4.50     -13.51      34.46
H       4.08     -12.27      33.26
H       4.94     -13.76      32.77
H       8.00      -1.29      51.60
H       4.54       2.84      51.73
H       4.20       1.15      51.35
H       4.94       1.59      52.91
H       7.99      11.57      32.57
H       4.45       9.61      28.81
H       4.07      10.02      30.48
H       4.89      11.20      29.42
H       0.53     -15.12      27.48
H       5.43      50.86      22.24
H       6.79      49.82      22.65
H       6.77      50.71      21.10
H       0.53      -2.35      56.61
H       5.41      26.72       2.02
H       6.76      27.62       2.71
H       6.74      25.84       2.77
H       0.56      16.44      30.98
H       5.44      21.26      33.07
H       6.82      21.52      32.00
H       6.75      22.32      33.59
H       0.58      47.74      29.97
H       5.45     -18.25      35.18
H       6.80     -17.22      34.72
H       6.80     -18.04      36.30
H       0.54      34.96       0.91
H       5.44       5.91      55.43
H       6.80       5.03      54.73
H       6.78       6.81      54.72
H       0.49      16.13      26.50
H       5.38      11.33      24.39
H       6.73      11.18      25.52
H       6.71      10.24      24.00
H       9.40      61.06       1.06
H       3.91      22.96      55.80
H       2.77      24.14      55.15
H       2.52      22.40      54.87
H       9.37       3.28       3.82
H       3.88       3.13       9.45
H       2.77       2.02       8.64
H       2.48       2.51      10.34
H       9.41      34.55      52.47
H       3.91     -27.11      49.79
H       2.79     -27.22      51.15
H       2.52     -26.02      49.86
H       9.39     -28.43      56.39
H       3.91       9.63       1.69
H       2.77       8.42       2.28
H       2.51      10.15       2.64
H       9.41      29.35      53.64
H       3.91      29.49      48.01
H       2.77      30.64      48.72
H       2.53      30.02      47.06
H       9.38      -1.92       4.99
H       3.88      59.72       7.71
H       2.78      59.86       6.33
H       2.48      58.64       7.60
N       0.54      46.90      15.24
N       9.75      49.14      15.48
N       0.49      48.35      13.44
N       0.63      22.68       9.06
N       0.06      21.74       6.98
N       0.84      20.40       8.67
N       0.49      29.33      33.11
N       9.70      28.01      34.93
N       0.42      30.19      35.26
N       0.51     -14.26      42.21
N       9.73     -16.50      41.97
N       0.44     -15.70      44.02
N       0.54       9.97      48.49
N       9.76      10.89      50.54
N       0.49      12.26      48.83
N       0.63       3.24      24.41
N       0.06       4.57      22.56
N       0.85       2.44      22.24
N       0.36      13.73      41.95
N       9.35      15.88      41.67
N       0.36      15.27      43.68
N       0.34     -10.49      48.75
N       9.33     -11.33      50.74
N       0.33     -12.76      49.19
N       0.39      -4.26      24.42
N       9.29      -5.48      22.68
N       0.36      -3.46      22.25
N       0.37      18.93      15.57
N       9.27      16.81      15.75
N       0.34      17.46      13.78
N       0.35      43.13       8.72
N       9.34      43.96       6.72
N       0.36      45.39       8.25
N       0.33      36.88      33.10
N       9.33      38.20      34.82
N       0.32      36.14      35.29
N       9.17      52.75       8.85
N       9.16      51.60       6.80
N       8.41      50.57       8.74
N       9.32      14.21       7.04
N       9.15      13.07       9.08
N       8.52      15.31       8.91
N       9.16      31.97      41.37
N       9.17      34.32      41.40
N       8.40      33.16      39.55
N       9.19     -20.11      48.60
N       9.18     -18.96      50.65
N       8.42     -17.94      48.71
N       9.19      18.44      50.35
N       9.18      19.64      48.33
N       8.42      17.45      48.41
N       9.32       0.75      16.07
N       9.14      -1.59      16.11
N       8.52      -0.32      17.96
N       9.88      46.85      22.48
N       9.62      49.16      22.41
N       9.72      48.10      24.45
N       9.85      28.95       5.44
N       9.59      27.71       3.48
N       9.69      30.01       3.37
N       9.88      23.07      29.46
N       9.63      21.99      31.51
N       9.72      20.74      29.57
N       9.89     -14.22      34.96
N       9.64     -16.54      35.04
N       9.74     -15.48      32.99
N       9.89       3.68      52.07
N       9.63       4.91      54.04
N       9.72       2.60      54.14
N       9.83       9.50      28.03
N       9.57      10.58      25.98
N       9.67      11.83      27.91
N       9.63      13.31      34.74
N       9.48      15.64      34.84
N       9.85      14.61      32.80
N       9.64      -4.04      52.01
N       9.48      -5.30      53.97
N       9.84      -3.02      54.11
N       9.62     -10.30      28.32
N       9.45     -11.37      26.25
N       9.83     -12.63      28.15
N       9.61      19.26      22.75
N       9.43      16.93      22.63
N       9.81      17.95      24.68
N       9.62      36.66       5.50
N       9.46      37.91       3.53
N       9.83      35.64       3.40
N       9.65      42.92      29.13
N       9.49      43.99      31.20
N       9.86      45.25      29.29
N       9.90      57.89       3.61
N       9.90      59.04       5.62
N       9.92      60.22       3.62
N       9.87       7.08       5.29
N       9.90       8.24       3.29
N       9.91       5.91       3.27
N       9.90      33.93      48.44
N       9.91      31.61      48.44
N       0.01      32.75      50.46
N       9.90     -25.25      53.85
N       9.92     -26.41      51.84
N       0.01     -27.59      53.84
N       9.91      25.55      52.17
N       9.92      24.39      54.17
N       0.01      26.72      54.19
N       9.87      -1.30       9.01
N       9.88       1.02       9.02
N       9.90      -0.13       7.00
N       8.31      49.94      12.69
N       9.74      51.94      11.61
N       8.64      18.98       7.29
N       0.34      16.96       6.62
N       8.27      30.05      37.03
N       9.70      29.97      39.29
N       8.28     -17.32      44.77
N       9.74     -19.30      45.83
N       8.32      13.72      49.84
N       9.75      15.64      51.03
N       8.64       2.93      20.31
N       0.35       2.47      18.24
N       9.79      18.21      44.20
N       7.88      17.31      45.80
N       9.77     -14.67      51.49
N       7.86     -15.62      49.90
N       9.63      -4.46      19.41
N       7.92      -2.43      19.46
N       9.62      14.50      13.23
N       7.91      15.55      11.49
N       9.79      47.31       5.97
N       7.87      48.25       7.55
N       9.78      37.17      38.10
N       7.85      35.36      38.14
N       1.52      46.73      11.73
N       0.71      44.20      11.55
N       1.73      19.78      10.99
N       0.74      20.87      13.22
N       1.47      32.46      34.71
N       0.67      33.88      32.61
N       1.49     -14.09      45.72
N       0.69     -11.56      45.90
N       1.52      12.92      46.58
N       0.71      11.82      44.30
N       1.74       0.12      22.87
N       0.76      -1.27      24.92
N       9.84      46.80      19.62
N       0.06      49.02      18.15
N       9.84      26.50       6.93
N       0.06      24.11       5.76
N       9.82      25.58      30.84
N       0.05      25.75      33.50
N       9.84     -14.17      37.82
N       0.06     -16.39      39.30
N       9.84       6.13      50.59
N       0.06       8.52      51.77
N       9.83       6.99      26.65
N       0.04       6.81      24.00
N       0.03      13.44      37.62
N       8.86      15.44      39.03
N       0.03      -6.60      50.68
N       8.86      -8.82      51.70
N       0.01      -7.87      26.78
N       8.85      -7.63      24.34
N       9.92      19.15      19.88
N       8.84      17.17      18.44
N       0.02      39.23       6.81
N       8.85      41.44       5.79
N       0.03      40.49      30.69
N       8.86      40.28      33.12
N       0.02      55.43       4.94
N       9.48      55.15       7.55
N       9.91       9.47       6.75
N       9.51      11.87       5.66
N       0.03      34.00      45.65
N       9.48      31.88      44.10
N       0.03     -22.80      52.51
N       9.49     -22.52      49.90
N       0.04      23.17      50.71
N       9.49      20.77      51.78
N       9.91      -1.37      11.82
N       9.50       0.77      13.35
N       8.95      45.12      25.13
N       1.16      45.09      26.76
N       8.93      32.11       5.61
N       1.13      33.52       4.80
N       8.94      21.63      26.64
N       1.13      20.22      25.81
N       8.95     -12.50      32.32
N       1.15     -12.47      30.68
N       8.95       0.52      51.90
N       1.15      -0.90      52.71
N       8.93      10.93      30.85
N       1.13      12.34      31.66
N       0.09      50.49      25.73
N       9.14     -13.76      24.78
N       0.08      29.92       0.66
N       9.15      -5.38      56.78
N       0.12      18.44      31.00
N       9.17      18.10      33.51
N       0.13     -17.86      31.71
N       9.18      46.38      32.67
N       0.10       2.69      56.85
N       9.15      37.99       0.73
N       0.05      14.12      26.48
N       9.11      14.46      23.97
N       9.68      26.71      56.98
N       0.32      57.89       0.84
N       9.64       2.29       5.61
N       0.30       4.67       6.68
N       9.68     -30.00      52.43
N       0.33      36.33      49.83
N       9.66       5.92       0.48
N       0.32     -25.26      56.62
N       9.68      30.34      51.85
N       0.33      27.95      50.78
N       9.66      62.63       5.02
N       0.29      -3.70       7.62
O       1.49      53.14      13.46
O       2.44      51.25      12.99
O       2.95      17.75       6.87
O       2.63      19.57       5.78
O       1.42      27.71      39.37
O       2.39      29.09      38.04
O       1.52     -20.48      44.01
O       2.42     -18.57      44.38
O       1.50      14.64      52.99
O       2.45      14.08      51.12
O       2.94       2.59      19.18
O       2.62       4.54      20.03
O       7.47      14.64      44.92
O       6.67      15.49      43.12
O       7.44     -13.54      48.02
O       6.64     -12.39      49.65
O       7.67      -1.77      22.20
O       6.73      -3.70      22.45
O       7.63      18.24      12.27
O       6.73      17.54      14.09
O       7.47      46.14       9.42
O       6.66      45.01       7.78
O       7.41      34.78      35.39
O       6.63      36.77      35.22
O       0.94      43.28      14.37
O       8.85      43.71      13.71
O       0.90      23.78      12.53
O       8.85      22.93      12.52
O       0.88      31.90      30.39
O       8.82      32.26      31.08
O       0.89     -10.62      43.08
O       8.83     -11.06      43.74
O       0.93       8.92      44.91
O       8.85       9.71      44.96
O       0.91       0.79      27.09
O       8.86       0.36      26.36
O       9.17      51.21      19.63
O       1.35      51.00      19.79
O       9.10      24.29       3.13
O       1.29      24.50       3.20
O       9.19      23.37      34.66
O       1.39      23.37      34.37
O       9.16     -18.56      37.81
O       1.36     -18.38      37.67
O       9.17       8.34      54.42
O       1.36       8.09      54.31
O       9.07       9.17      22.84
O       1.26       9.22      23.06
O       8.62      17.55      36.97
O       7.02      16.25      36.32
O       8.63      -8.12      54.55
O       7.03      -6.88      53.79
O       8.63     -10.47      23.51
O       7.03     -10.41      24.94
O       8.61      15.02      20.47
O       7.01      16.29      21.14
O       8.61      40.72       2.93
O       7.01      39.50       3.74
O       8.63      43.10      33.93
O       7.04      43.06      32.48
O       0.17      57.56       8.85
O       8.03      57.50       8.37
O       0.22      11.77       2.94
O       8.07      11.40       3.22
O       0.19      29.57      45.54
O       8.03      30.02      45.73
O       0.24     -24.92      48.63
O       8.07     -24.88      49.06
O       0.19      20.85      54.51
O       8.04      21.25      54.22
O       0.20       3.08      11.90
O       8.05       2.65      11.73
O       2.46      47.55      26.07
O       2.91      46.61      24.18
O       2.45      31.74       3.03
O       2.87      30.50       4.74
O       2.49      19.58      28.24
O       2.89      21.68      28.43
O       2.50     -14.90      31.34
O       2.91     -14.02      33.26
O       2.46       0.92      54.48
O       2.91       2.08      52.72
O       2.44      12.99      29.22
O       2.86      10.89      29.00
O       8.87      52.79      22.04
O       7.11      51.89      22.81
O       8.90      25.56       0.53
O       7.12      26.67       0.88
O       8.90      20.49      34.84
O       7.13      20.25      33.65
O       8.94     -20.15      35.40
O       7.14     -19.29      34.64
O       8.89       7.05      56.99
O       7.12       5.93      56.60
O       8.86      12.06      22.64
O       7.08      12.30      23.78
O       0.16      22.26      57.05
O       2.14      23.05      56.83
O       0.12       4.57       9.42
O       2.10       4.00       8.90
O       0.17     -27.82      48.54
O       2.13     -28.01      49.32
O       0.19      10.38       0.40
O       2.14       9.58       0.65
O       0.16      28.05      48.02
O       2.14      28.64      48.60
O       0.10      60.46       8.90
O       2.09      60.63       8.16
