364

Cd      16.69      11.23      16.18
Cd      18.78      13.40      14.50
Cd       7.94       5.03      13.84
Cd       5.22       3.76      15.53
Cd       6.41       5.16       3.84
Cd       4.32       2.99       5.52
Cd      15.17      11.37       6.18
Cd      17.88      12.64       4.49
H      21.55      13.91      17.92
H       6.76      12.57      17.90
H       5.34      11.64       0.17
H      20.13      12.96       0.17
H       3.71      10.05       0.89
H      16.58      10.04       1.14
H      18.24      10.91      19.46
H      17.62       8.82       0.41
H      19.70      14.38      19.32
H      18.24      13.42      19.06
H      16.82      12.47       0.69
H       5.83      10.42      17.36
H       5.97      10.32      19.12
H      20.40       9.80      18.31
H      20.16      10.30      12.69
H      19.19      10.01      11.25
H       4.60       8.09      10.67
H       5.74       8.70      11.86
H       3.80       6.44      12.12
H      17.67       7.18      15.03
H      18.92       5.83      14.95
H       4.78       7.79      15.70
H      16.92       9.04      11.62
H      17.83       7.53      11.47
H      16.71       7.76      12.84
H      13.81      12.33      11.76
H      15.81      12.09      13.22
H      13.50      11.05      16.49
H      11.38      11.26      15.18
H       6.83      12.99      10.77
H      20.49      13.42      11.67
H       5.72      12.56      15.54
H       8.06      12.04      14.83
H      10.82      13.14       8.75
H      12.39      12.74       6.86
H      14.45       9.82       8.95
H      12.93      10.04      10.92
H       9.02      12.08      10.23
H       3.81       1.34      12.09
H       9.94      14.86      12.12
H       9.38      14.53       9.82
H       3.28       1.02       9.83
H      11.44      15.53       9.12
H       7.20       3.40       8.88
H       7.74       3.46      10.58
H       8.02       2.01       9.60
H       3.98       3.23      10.70
H       5.38       4.30      10.96
H       4.83       3.95       9.31
H      12.30      15.01      12.65
H      12.34      14.85      10.89
H       8.08       1.05      11.70
H       7.70       1.43      17.39
H       8.32       2.25      18.82
H      14.94      15.38      19.36
H      13.98      14.52      18.17
H      16.75      15.62      17.90
H      11.43       2.78      15.00
H      12.31       1.17      15.07
H      15.13      15.15      14.33
H       9.96       4.08      18.43
H      11.10       2.73      18.55
H      11.22       3.87      17.19
H       7.87       8.11      18.26
H       7.43       6.14      16.82
H       9.16       7.98      13.54
H       9.66      10.05      14.84
H       9.56      14.91      19.25
H       4.66       2.16      18.36
H      10.34      15.81      14.49
H      10.04      13.43      15.20
H       6.19       9.84       1.25
H       6.05       8.23       3.15
H       8.10       5.31       1.05
H      10.33       8.18      19.09
H       9.70      12.55      19.80
H       1.56       2.49       2.10
H      16.34       3.82       2.12
H      17.76       4.76      19.84
H       2.97       3.44      19.85
H      19.39       6.35      19.13
H       6.53       6.35      18.87
H       4.86       5.49       0.56
H       5.48       7.58      19.61
H       3.40       2.01       0.70
H       4.87       2.98       0.96
H       6.29       3.93      19.32
H      17.28       5.97       2.65
H      17.13       6.08       0.89
H       2.70       6.60       1.71
H       2.94       6.10       7.33
H       3.92       6.39       8.76
H      18.50       8.31       9.34
H      17.37       7.70       8.16
H      19.30       9.96       7.90
H       5.43       9.22       4.99
H       4.18      10.57       5.07
H      18.33       8.61       4.32
H       6.19       7.36       8.40
H       5.28       8.87       8.55
H       6.39       8.64       7.18
H       9.30       4.06       8.25
H       7.30       4.31       6.80
H       9.61       5.35       3.53
H      11.72       5.13       4.84
H      16.27       3.41       9.24
H       2.62       2.98       8.35
H      17.39       3.84       4.48
H      15.04       4.35       5.19
H      12.28       3.26      11.27
H      10.72       3.66      13.16
H       8.66       6.57      11.07
H      10.18       6.36       9.09
H      14.09       4.32       9.79
H      19.29      15.05       7.92
H      13.16       1.54       7.89
H      13.73       1.86      10.19
H      19.83      15.38      10.19
H      11.67       0.87      10.89
H      15.91      12.99      11.14
H      15.36      12.93       9.43
H      15.09      14.39      10.42
H      19.12      13.16       9.31
H      17.73      12.10       9.06
H      18.27      12.45      10.71
H      10.81       1.39       7.37
H      10.76       1.55       9.13
H      15.03      15.35       8.31
H      15.41      14.97       2.63
H      14.79      14.15       1.20
H       8.16       1.02       0.66
H       9.13       1.88       1.84
H       6.36       0.78       2.12
H      11.68      13.61       5.01
H      10.79      15.23       4.94
H       7.97       1.25       5.69
H      13.15      12.32       1.58
H      12.01      13.67       1.47
H      11.89      12.52       2.83
H      15.24       8.28       1.75
H      15.67      10.25       3.20
H      13.94       8.42       6.48
H      13.44       6.35       5.18
H      13.54       1.49       0.77
H      18.45      14.24       1.66
H      12.77       0.58       5.53
H      13.07       2.96       4.82
H      16.92       6.56      18.76
H      17.05       8.17      16.87
H      15.00      11.08      18.97
H      12.78       8.22       0.93
H      13.40       3.85       0.22
C      19.92      12.24      19.80
C      20.65      11.98      18.42
C       5.90      12.99      18.44
C       6.23      13.25      19.93
C      19.23      11.06       0.73
C      17.07       9.75       0.21
C      19.11      13.55      19.72
C      18.97      11.60       2.13
C      19.64      12.19      17.27
C       5.27      10.54      18.30
C      19.39       7.76      13.76
C      18.58       8.88      13.02
C      19.65       9.52      12.12
C       4.70       8.39      11.72
C       4.39       7.19      12.66
C      18.72       6.90      14.85
C       3.85       7.86      15.16
C      17.96       9.87      14.01
C       5.63       6.44      13.12
C      17.44       8.26      12.19
C      11.17      11.85      12.57
C      10.91      11.84      11.19
C       9.03      12.21      12.37
C      12.41      11.75      13.33
C      13.68      12.01      12.79
C      14.81      11.88      13.60
C      13.52      11.31      15.43
C      12.34      11.42      14.70
C       7.65      12.46      12.74
C       6.64      12.85      11.84
C      21.29      13.10      12.33
C       6.01      12.61      14.49
C       7.31      12.34      14.10
C      11.75      11.63      10.02
C      11.59      12.37       8.84
C      12.46      12.16       7.78
C      13.61      10.52       8.95
C      12.78      10.66      10.05
C       5.94       2.32      10.23
C       5.94       1.54      11.61
C       9.85      15.81      11.58
C       9.49      15.59      10.09
C       5.37       1.22       9.28
C       7.31       2.83       9.80
C       4.97       3.52      10.30
C       4.96       1.64       7.87
C       6.09       2.55      12.76
C      12.37      15.58      11.71
C      10.33       1.33      16.28
C       9.55       2.47      17.02
C       8.61       1.66      17.94
C      14.62      15.40      18.31
C      15.84      15.31      17.36
C      11.36       1.70      15.17
C      15.37      16.05      14.88
C       8.79       3.37      16.05
C      16.15      13.90      16.88
C      10.52       3.34      17.84
C       9.19      10.44      17.45
C       9.29      10.69      18.83
C       9.57      12.58      17.66
C       8.87       9.23      16.69
C       8.21       8.12      17.23
C       7.96       7.02      16.43
C       8.92       8.05      14.59
C       9.20       9.19      15.32
C       9.79      13.96      17.29
C       9.76      15.05      18.19
C       4.69       1.29      17.69
C      10.18      15.56      15.53
C      10.01      14.24      15.93
C       9.22       9.82      20.00
C       6.66       8.86       1.17
C       6.57       7.97       2.23
C       7.72       6.34       1.05
C       9.79       8.53      19.97
C       3.18       4.16       0.22
C       2.45       4.42       1.60
C      17.20       3.41       1.58
C      16.88       3.14       0.09
C       3.88       5.34      19.29
C       6.03       6.65      19.80
C       4.00       2.85       0.30
C       4.13       4.80      17.88
C       3.46       4.21       2.75
C      17.83       5.86       1.71
C       3.71       8.64       6.26
C       4.53       7.52       6.99
C       3.46       6.88       7.90
C      18.41       8.01       8.29
C      18.71       9.20       7.35
C       4.39       9.49       5.16
C      19.26       8.54       4.86
C       5.14       6.53       6.00
C      17.48       9.96       6.89
C       5.67       8.14       7.83
C      11.93       4.55       7.44
C      12.20       4.55       8.83
C      14.07       4.19       7.65
C      10.69       4.65       6.68
C       9.42       4.39       7.22
C       8.29       4.52       6.42
C       9.59       5.09       4.59
C      10.76       4.98       5.32
C      15.45       3.94       7.28
C      16.46       3.55       8.18
C       1.81       3.30       7.69
C      17.09       3.78       5.52
C      15.79       4.06       5.92
C      11.36       4.77       9.99
C      11.52       4.03      11.18
C      10.64       4.24      12.24
C       9.49       5.87      11.07
C      10.33       5.74       9.97
C      17.17      14.08       9.79
C      17.17      14.86       8.41
C      13.26       0.59       8.44
C      13.61       0.81       9.93
C      17.73      15.18      10.74
C      15.79      13.57      10.22
C      18.14      12.88       9.71
C      18.14      14.76      12.15
C      17.02      13.85       7.26
C      10.74       0.82       8.31
C      12.77      15.06       3.74
C      13.55      13.93       3.00
C      14.49      14.74       2.07
C       8.49       1.00       1.70
C       7.27       1.09       2.66
C      11.75      14.69       4.84
C       7.73       0.35       5.14
C      14.32      13.03       3.97
C       6.96       2.50       3.13
C      12.59      13.06       2.17
C      13.92       5.95       2.57
C      13.81       5.71       1.19
C      13.54       3.82       2.36
C      14.23       7.16       3.33
C      14.90       8.27       2.78
C      15.15       9.38       3.59
C      14.19       8.35       5.42
C      13.90       7.21       4.69
C      13.32       2.43       2.73
C      13.35       1.35       1.83
C      18.42      15.10       2.32
C      12.92       0.84       4.49
C      13.09       2.16       4.09
C      13.88       6.58       0.02
C      16.44       7.54      18.85
C      16.53       8.43      17.79
C      15.38      10.06      18.97
C      13.31       7.87       0.05
N      10.00      12.06      13.26
N       9.55      12.09      11.09
N      14.73      11.51      14.89
N      20.97      12.99      13.63
N      13.47      11.26       7.83
N       9.37      11.61      16.76
N       9.51      12.05      18.93
N       8.32       6.97      15.13
N       4.90       1.55      16.39
N       7.08       6.72       2.17
N      13.10       4.33       6.75
N      13.56       4.31       8.92
N       8.37       4.88       5.12
N       2.13       3.41       6.38
N       9.64       5.14      12.19
N      13.73       4.78       3.26
N      13.59       4.35       1.09
N      14.78       9.43       4.88
N      18.21      14.84       3.63
N      16.02       9.68      17.85
O      19.76      13.22      16.52
O      18.74      11.30      17.17
O      19.87      12.28       2.70
O      17.84      11.32       2.69
O      18.29      11.10      13.96
O      17.10       9.41      14.83
O       5.58       5.77      14.22
O       6.67       6.48      12.40
O       5.06       2.79      13.50
O       7.24       3.07      12.89
O       4.05       1.00       7.27
O       5.57       2.65       7.34
O       7.52       3.47      16.17
O       9.48       4.02      15.19
O      16.77      13.73      15.77
O      15.79      12.92      17.62
O       3.34       3.17       3.50
O       4.36       5.09       2.84
O       3.23       4.12      17.31
O       5.27       5.07      17.33
O       4.81       5.30       6.06
O       6.01       6.99       5.18
O      17.53      10.62       5.80
O      16.43       9.91       7.62
O      18.04      13.61       6.52
O      15.87      13.33       7.13
O      19.05      15.40      12.75
O      17.53      13.75      12.67
O      15.58      12.93       3.85
O      13.63      12.38       4.83
O       6.34       2.67       4.25
O       7.31       3.48       2.40
