10

N      -1.34       9.28       2.65
C       0.32      13.35       1.88
C      -1.68      13.08       2.70
C      -1.23       7.90       2.72
N      -0.44      12.48       2.64
C       2.24       9.00       1.89
Zn       0.04      10.62       2.85
C      -2.44       9.49       1.85
N       1.88      10.08       2.66
C       3.02      10.86       2.69
