29

N      -0.39      14.39       1.50
Zn      -2.92      15.93       2.18
N       3.23      15.93      -0.14
N       1.78      14.21      -2.00
N       0.49      17.47      -1.50
N      -1.67      17.62       2.01
Cl       2.51      15.89      -4.52
C      -1.67      18.75       2.71
Zn       0.06      15.94      -0.03
Cl      -2.42      15.93       4.53
C      -0.21      18.51      -1.89
Zn       3.03      15.90      -2.24
C       0.32      13.35       1.88
N      -3.13      15.92       0.11
N      -2.03      15.90      -0.74
N       2.14      15.95       0.72
C       1.77      13.07      -2.69
C      -2.55      15.90      -1.99
C      -1.68      13.08       2.70
C      -0.21      13.33      -1.83
C       2.65      15.94       1.96
C       1.79      18.77      -2.70
C       0.31      18.50       1.85
N       0.52      14.36      -1.45
N      -1.66      14.24       2.03
N      -0.41      17.47       1.45
C       4.32      15.90       0.60
C      -4.22      15.93      -0.63
N       1.77      17.61      -2.03
