48

H      13.09       5.68      14.65
H      10.87       6.80      14.64
H      11.42       7.55      18.87
H      13.62       6.36      18.70
H       9.55       8.57      17.75
H      10.19      12.88      13.60
H       9.83      10.41      13.53
H       8.80      10.59      17.72
N      13.43       5.97      16.67
H       9.51       8.38      14.67
N       9.77      13.05      15.63
H       9.31      13.03      17.65
H       7.73       8.94      13.16
H       5.68       6.33      15.93
H       7.11       8.90      16.50
H       6.33       7.94      11.34
N       5.24       6.73      12.62
H       4.30       5.54      14.03
H       5.83       7.78      17.68
H       8.55       6.23      16.07
H       9.27       5.34      18.65
H       4.65       6.72      19.61
H       7.97       4.48      20.62
C      12.67       6.10      15.56
C      11.43       6.73      15.57
C      10.95       7.29      16.77
C      11.75       7.15      17.91
C      12.97       6.49      17.83
C       9.62       7.97      16.84
C       9.90      12.33      14.50
C       9.68      10.96      14.46
C       9.29      10.28      15.62
C       9.11      11.04      16.78
C       9.37      12.41      16.76
C       9.10       8.79      15.61
C       6.19       7.66      12.38
C       6.98       8.19      13.40
C       6.82       7.74      14.71
C       5.84       6.75      14.94
C       5.07       6.29      13.89
C       7.67       8.20      15.86
C       5.68       6.46      19.36
C       6.35       7.04      18.29
C       7.64       6.61      17.96
C       8.25       5.68      18.82
C       7.54       5.18      19.91
C       8.32       7.09      16.72
N       6.25       5.53      20.14
