48

N       3.78       3.76      16.24
N       7.34      -3.08      16.16
N      11.85       2.40      20.01
N      10.51       4.44      11.88
H       3.25       3.08      14.34
H       5.46       2.06      13.86
H       6.77       3.40      17.75
H       4.48       4.31      18.11
H       7.67       1.57      14.52
H       6.80      -3.06      18.17
H       7.30      -0.65      18.48
H       8.55      -0.50      14.35
H       7.90      -2.92      14.18
H       7.88       1.43      17.58
H      12.49       4.20      19.23
H      11.25       3.94      17.06
H       9.89       0.10      18.50
H      11.13       0.56      20.62
H      10.22       1.15      15.62
H      12.39       3.89      12.56
H      11.58       3.00      14.75
H       7.58       4.13      13.56
H       8.54       4.93      11.41
H       8.77       3.75      16.36
C       4.04       3.11      15.09
C       5.29       2.55      14.81
C       6.31       2.65      15.76
C       6.02       3.30      16.97
C       4.75       3.83      17.17
C       7.66       2.06      15.50
C       7.18      -2.46      17.34
C       7.48      -1.11      17.51
C       7.98      -0.36      16.45
C       8.17      -1.03      15.23
C       7.83      -2.37      15.12
C       8.24       1.11      16.59
C      11.88       3.31      19.02
C      11.20       3.15      17.81
C      10.46       1.99      17.59
C      10.45       1.02      18.61
C      11.14       1.28      19.79
C       9.65       1.75      16.35
C      11.32       3.92      12.81
C      10.87       3.43      14.05
C       9.51       3.49      14.35
C       8.66       4.05      13.39
C       9.19       4.50      12.18
C       8.95       2.94      15.64
