48

H       4.85      14.87       6.87
H       7.08      13.75       6.89
H       6.54      13.00       2.65
H       4.34      14.19       2.82
H       8.41      11.98       3.78
H       7.78       7.68       7.95
H       8.14      10.15       8.02
H       9.15       9.96       3.82
H       8.65       7.52       3.89
H       8.45      12.18       6.86
H      11.62      12.62      10.19
H      10.22      11.63       8.37
H      12.30      14.20       5.59
H      13.69      14.98       7.50
H      10.84      11.67       5.03
H      13.28      13.86       1.91
H      12.11      12.78       3.83
H       8.68      15.26       2.93
H       9.97      16.15       0.97
H       9.39      14.33       5.48
C       5.28      14.45       5.96
C       6.52      13.81       5.95
C       7.00      13.26       4.76
C       6.21      13.40       3.61
C       4.99      14.06       3.69
C       8.34      12.58       4.70
C       8.07       8.23       7.05
C       8.29       9.60       7.09
C       8.67      10.28       5.92
C       8.85       9.51       4.76
C       8.58       8.14       4.79
C       8.86      11.76       5.93
C      11.77      12.90       9.15
C      10.98      12.37       8.13
C      11.14      12.82       6.81
C      12.13      13.79       6.58
C      12.91      14.24       7.64
C      10.28      12.36       5.67
C      12.25      14.12       2.17
C      11.59      13.54       3.24
C      10.30      13.97       3.58
C       9.69      14.92       2.74
C      10.41      15.43       1.66
C       9.62      13.48       4.82
N       4.53      14.58       4.85
N       8.19       7.51       5.91
N      12.73      13.81       8.90
N      11.68      15.08       1.42
