48

H      11.20       7.28       3.97
H      15.20       6.12       2.83
H      14.26       5.29       0.68
H      14.01       6.53       5.61
N      18.98       6.50       5.47
N      15.40      13.37       5.39
N      10.89       7.89       9.22
N      12.29       5.80       1.13
C      18.73       7.16       4.32
C      17.48       7.73       4.06
C      16.46       7.63       5.00
C      16.75       6.98       6.21
C      18.01       6.43       6.41
C      15.11       8.22       4.74
C      15.56      12.75       6.57
C      15.27      11.40       6.75
C      14.78      10.64       5.68
C      14.59      11.30       4.46
C      14.92      12.65       4.35
C      14.53       9.17       5.83
C      10.86       6.98       8.24
C      11.55       7.13       7.03
C      12.30       8.30       6.82
C      12.30       9.26       7.84
C      11.60       9.01       9.01
C      13.12       8.53       5.58
C      11.47       6.34       2.05
C      11.91       6.84       3.28
C      13.27       6.77       3.60
C      14.13       6.19       2.65
C      13.60       5.73       1.44
C      13.83       7.33       4.88
H      19.52       7.18       3.58
H      17.32       8.23       3.10
H      16.01       6.88       7.00
H      18.29       5.96       7.34
H      15.10       8.71       3.76
H      15.93      13.36       7.40
H      15.45      10.94       7.72
H      14.21      10.77       3.58
H      14.85      13.19       3.40
H      14.88       8.85       6.82
H      10.25       6.10       8.44
H      11.50       6.35       6.28
H      12.86      10.19       7.72
H      11.61       9.73       9.83
H      12.56       9.12       4.84
H      10.41       6.37       1.78
