152

K      10.53      14.57      12.19
K      10.94      14.14       7.73
K       8.38      15.93       9.35
K      12.00      17.89       7.63
K      11.59      18.32      12.09
K      14.16      16.53      10.47
H       8.31       9.44      10.52
H       6.39      10.08      11.68
H       5.98      12.35      12.02
H       7.44      13.94      11.21
H      10.53      11.53       8.77
H      11.36      10.25      11.19
H      12.34      10.73      10.02
H      11.54      11.81      10.88
H       9.57       9.47       8.18
H      11.15       9.33       8.37
H      10.16       8.81       9.51
H      14.78      14.43      16.17
H      13.17      15.31      17.59
H      11.32      16.42      16.68
H      11.12      16.66      14.37
H      15.18      15.10      12.79
H      16.92      13.71      13.44
H      16.70      14.82      14.57
H      16.16      13.33      14.79
H      14.19      12.50      13.46
H      13.54      13.46      12.35
H      15.00      12.85      12.13
H       5.60      18.52      13.53
H       5.71      20.39      12.14
H       7.45      20.60      10.62
H       9.06      18.95      10.48
H       7.90      15.73      13.40
H       6.00      14.84      14.28
H       5.71      15.39      12.81
H       5.22      16.22      14.09
H       8.55      17.06      15.15
H       7.63      15.87      15.70
H       7.03      17.35      15.55
H      14.22      23.02       9.30
H      16.14      22.38       8.14
H      16.55      20.11       7.80
H      15.09      18.52       8.61
H      12.00      20.93      11.05
H      11.17      22.20       8.63
H      10.19      21.73       9.80
H      10.99      20.64       8.94
H      12.96      22.99      11.64
H      11.38      23.12      11.45
H      12.37      23.65      10.31
H       7.75      18.03       3.65
H       9.36      17.15       2.23
H      11.22      16.04       3.14
H      11.41      15.79       5.45
H       7.35      17.36       7.03
H       5.61      18.75       6.38
H       5.83      17.63       5.25
H       6.37      19.12       5.02
H       8.34      19.96       6.36
H       8.99      19.00       7.47
H       7.53      19.60       7.69
H      16.94      13.94       6.29
H      16.82      12.06       7.68
H      15.08      11.86       9.20
H      13.47      13.50       9.34
H      14.63      16.73       6.42
H      16.53      17.62       5.54
H      16.82      17.07       7.01
H      17.31      16.23       5.73
H      13.98      15.40       4.67
H      14.90      16.59       4.12
H      15.50      15.11       4.27
C      11.49      20.23      15.08
C       9.95      21.27      13.64
C       8.79      12.67      10.34
C       9.05      11.28      10.16
C       8.14      10.36      10.66
C       7.00      10.74      11.35
C       6.75      12.07      11.55
C       7.63      13.02      11.06
C      10.34      10.86       9.49
C      11.50      10.92      10.49
C      10.30       9.50       8.83
C      12.88      15.75      13.87
C      13.97      15.03      14.42
C      14.04      14.89      15.80
C      13.08      15.41      16.65
C      11.99      16.07      16.11
C      11.88      16.22      14.73
C      14.98      14.42      13.50
C      16.31      14.04      14.13
C      14.37      13.20      12.80
C       8.34      17.71      11.94
C       7.27      17.59      12.86
C       6.31      18.60      12.91
C       6.38      19.72      12.08
C       7.40      19.84      11.18
C       8.35      18.86      11.11
C       7.22      16.37      13.76
C       5.93      15.64      13.73
C       7.65      16.69      15.16
C      11.10      12.64      15.24
C       9.57      11.60      13.82
C       4.68      14.99       9.39
C       5.17      17.27       9.54
C      11.04      12.22       4.74
C      12.58      11.19       6.18
C      13.74      19.78       9.48
C      13.48      21.18       9.66
C      14.39      22.09       9.16
C      15.53      21.72       8.47
C      15.78      20.38       8.27
C      14.90      19.43       8.76
C      12.19      21.60      10.33
C      11.03      21.54       9.33
C      12.23      22.96      10.99
C       9.65      16.71       5.95
C       8.57      17.43       5.39
C       8.49      17.56       4.02
C       9.45      17.05       3.17
C      10.54      16.39       3.71
C      10.65      16.23       5.09
C       7.55      18.04       6.32
C       6.23      18.42       5.69
C       8.16      19.26       7.02
C      14.19      14.74       7.88
C      15.26      14.86       6.96
C      16.22      13.86       6.91
C      16.15      12.74       7.74
C      15.13      12.61       8.64
C      14.18      13.60       8.70
C      15.31      16.09       6.06
C      16.60      16.81       6.09
C      14.88      15.77       4.66
C      11.43      19.82       4.58
C      12.97      20.86       6.00
C      17.85      17.47      10.43
C      17.36      15.19      10.28
O      11.08      20.39      13.71
O       9.61      13.60       9.87
O      12.78      15.95      12.56
O       9.27      16.80      11.85
O      10.67      12.49      13.88
O       5.70      15.95       9.69
O      11.45      15.91       9.93
O      11.46      12.06       6.11
O      12.92      18.86       9.95
O       9.75      16.50       7.26
O      13.27      15.66       7.97
O      11.86      19.96       5.94
O      16.83      16.51      10.13
O      11.08      16.54       9.89
