267

C      14.86       0.85       3.74
C       5.83      14.17       3.00
C      13.38       0.40       1.84
C      13.47       1.74       1.38
C      14.45       2.55       2.01
C      15.10       2.13       3.19
C      12.61       2.24       0.21
C      13.41       1.70      48.23
C      14.54       2.43      47.76
C      -1.19       2.08      46.58
C      14.83       0.94      45.83
C      13.83       0.11      46.38
C      13.16       0.46      47.57
C      11.16       1.74       0.30
C      12.35       3.74       0.14
C      12.10       4.36      48.10
C      11.97       5.75      48.01
C      12.03       6.56      49.17
C      12.08       5.94       1.22
C      12.18       4.54       1.30
C      10.50       1.57       1.55
C       9.22       1.02       1.63
C       8.50       0.66       0.46
C       9.05       0.96      48.41
C      10.34       1.52      48.34
C       1.51       0.91      20.14
C       1.16       2.06      19.41
C       1.86       2.42      18.24
C       2.98       1.67      17.78
C       3.18       0.41      18.41
C       2.49       0.06      19.58
C       3.83       2.17      16.62
C       2.99       1.71      15.43
C       3.06       0.37      14.96
C      -5.78      14.16      13.78
C       1.63       0.86      13.03
C       1.40       2.14      13.59
C       2.04       2.54      14.78
C       4.12       3.67      16.70
C       5.27       1.64      16.54
C       5.94       1.51      15.30
C       7.22       0.92      15.22
C       7.89       0.47      16.37
C       7.31       0.77      17.63
C       6.04       1.39      17.71
C       4.31       4.32      17.95
C       4.47       5.72      18.04
C       4.53       6.51      16.87
C       4.53       5.85      15.62
C       4.37       4.46      15.55
C       8.23      12.42      36.54
C      -6.99      12.14      35.80
C       9.37      11.36      34.63
C       8.16      10.77      34.17
C       6.97      11.21      34.81
C       7.00      11.99      35.98
C       8.17       9.78      33.01
C       8.19      10.75      31.82
C       6.99      11.35      31.36
C       6.96      12.11      30.17
C       8.14      12.35      29.43
C       9.36      11.90      29.98
C       9.38      11.15      31.17
C       9.32       8.78      33.09
C       6.99       8.80      32.93
C       6.54       8.28      31.69
C       5.40       7.47      31.60
C       4.67       7.11      32.76
C       5.22       7.46      34.01
C       6.39       8.25      34.10
C       9.80       8.29      34.34
C      10.92       7.45      34.43
C      11.58       7.01      33.26
C      11.01       7.34      32.01
C       9.88       8.17      31.94
C       8.29      13.01      37.84
C       7.29      13.91      38.29
C       8.20      13.96      40.51
C      -7.15      13.08      40.13
C      -7.13      12.63      38.78
C      16.15       0.17      41.85
C      -0.47       1.51      42.25
C      -0.86       1.75      43.59
C      15.36       0.70      44.52
C       7.43      13.59      44.06
C      -0.28       2.66      41.32
C      -6.08      12.65      41.07
C      15.35       0.51       5.04
C       0.22       0.91       5.50
C      16.21       0.10       7.72
C       6.72      13.84       7.33
C       6.32      14.05       5.99
C       0.29       0.11       9.05
C      -6.63      13.83       9.45
C      -6.23      14.05      10.79
C       1.15       0.52      11.72
C      -0.12       0.95      11.26
C      -5.73      13.10       8.52
C       5.82      13.13       8.27
C       0.96       0.66      21.44
C      -7.52      13.55      21.90
C       0.19       0.11      24.12
C       0.42       1.46      23.73
C       0.81       1.70      22.39
C       8.15      13.89      25.45
C       7.10      13.02      25.85
C       7.08      12.57      27.19
C       8.08      12.94      28.12
C      -7.31      13.82      27.66
C       6.01      12.61      24.91
C       0.26       2.59      24.67
C      -0.84      14.01       0.53
C      -0.77      12.83       1.29
C      -2.74      11.95       0.26
C      -2.95      13.11      48.72
C      -1.98      14.13      48.87
C      -3.35      10.68      49.14
C      -2.79       9.82      48.15
C      -3.22       8.48      48.13
C      -4.16       7.97      49.07
C      -4.67       8.93       0.80
C      -1.71      10.27      47.23
C      -4.10      13.27      47.80
C       4.36       7.93      16.94
C       3.29       8.46      17.70
C       3.52      10.60      16.67
C       4.65      10.17      15.93
C       5.05       8.82      16.08
C       2.75      11.73      16.35
C       1.73      11.67      15.36
C       0.78      12.72      15.34
C       0.81      13.78      16.27
C       1.87      13.78      17.21
C       1.57      10.51      14.44
C       5.37      11.08      15.01
C      -3.51       6.45      33.32
C      -2.51       7.10      34.09
C      -0.77       5.84      33.06
C      -1.71       5.07      32.32
C      -3.08       5.40      32.47
C       0.60       5.94      32.74
C       1.05       6.85      31.75
C       2.43       7.15      31.73
C       3.34       6.59      32.66
C       2.81       5.67      33.60
C       0.13       7.57      30.83
C      -1.28       4.00      31.39
H      11.91       6.18      47.08
H      12.11       3.83      47.22
H      12.12       6.48       2.09
H      12.22       4.12       2.23
H      10.99       1.78       2.42
H       8.83       0.81       2.56
H       8.58       0.71      47.54
H      10.72       1.71      47.41
H       4.23      14.04      47.91
H       5.32      13.47      45.89
H      -0.44       2.69      46.25
H      -1.58       3.29      48.23
H      -1.75       3.49       1.67
H       4.55      13.94       1.37
H       5.66      13.22       3.34
H      -0.70       2.81       3.67
H       7.62       0.77      14.29
H       5.49       1.77      14.43
H       7.75       0.47      18.50
H       5.66       1.56      18.63
H       4.24       3.80      18.83
H       4.49       6.15      18.97
H       4.56       6.38      14.75
H       4.35       4.03      14.62
H       1.86       3.49      15.12
H       0.83       2.84      13.09
H      -5.63      13.21      13.45
H      -4.54      13.89      15.43
H      -4.30      13.98      18.07
H       1.60       3.29      17.78
H       0.42       2.69      19.74
H      -5.42      13.40      20.07
H       5.06       7.20      30.67
H       6.99       8.55      30.82
H       4.74       7.23      34.89
H       6.73       8.50      35.03
H       9.37       8.61      35.22
H      11.29       7.22      35.36
H      11.46       7.05      31.14
H       9.53       8.41      31.01
H      -6.11      10.83      31.51
H      -6.16      12.05      29.49
H       6.05      12.46      29.84
H       6.10      11.17      31.83
H       6.06      10.91      34.46
H      -6.15      11.15      34.17
H      -6.08      12.47      36.14
H       6.12      12.16      36.46
H      -6.41      11.95      38.51
H      -1.07       2.71      43.87
H       7.32      12.78      44.67
H      14.75       0.04      37.68
H       0.71       2.61      40.87
H      -0.38       3.62      41.82
H      -1.03       2.62      40.52
H      -5.62      13.53      41.53
H      -5.29      12.08      40.58
H      -6.51      12.02      41.85
H       5.38      13.77       5.71
H      -5.29      13.75      11.08
H      -0.77       1.45      11.87
H       0.88       1.39       4.88
H      -6.27      12.26       8.07
H      -4.85      12.70       9.02
H      -5.39      13.77       7.72
H       6.35      12.29       8.73
H       4.93      12.73       7.78
H       5.49      13.81       9.06
H       1.04       2.66      22.11
H       6.36      11.90      27.47
H      -6.56      14.14      28.27
H       8.97      12.74      21.28
H       5.56      13.50      24.47
H       5.22      12.05      25.41
H       6.42      11.98      24.12
H      -0.73       2.55      25.13
H       0.36       3.56      24.18
H       1.02       2.54      25.46
H       6.15       0.78      48.30
H      -2.76       7.83      47.49
H      11.07       8.63       1.52
H       0.05      12.61       1.87
H      -2.05      11.11      46.63
H      -1.39       9.48      46.54
H      -0.83      10.58      47.80
H      -4.06      12.52      47.01
H       4.09       0.06      47.32
H      -5.03      13.16      48.35
H       5.82       8.46      15.51
H      -0.01      12.64      14.70
H      10.13       0.30      17.93
H       2.70       7.86      18.28
H       2.47      10.39      13.84
H       0.73      10.64      13.75
H       1.40       9.60      15.01
H       4.70      11.43      14.22
H       6.23      10.60      14.54
H       5.74      11.95      15.56
H      12.62       4.92      31.90
H       2.76       7.88      31.09
H       3.40       5.25      34.32
H      -2.73       7.91      34.67
H      -0.43       6.85      30.23
H       0.65       8.24      30.14
H      -0.58       8.17      31.40
H      -0.65       4.40      30.61
H      14.27       3.50      30.92
H      -0.72       3.25      31.95
N      15.48       0.12      39.58
N       7.78      13.38      42.77
N       0.59       0.72       6.79
N      15.92       0.75       9.97
N       8.53      13.33      23.18
N       0.89       0.03      26.37
N      -1.67      11.84       1.10
N      -4.23      10.21       0.83
N       2.89       9.73      17.50
N       2.76      12.76      17.24
N      -1.21       6.81      33.89
N       1.48       5.41      33.63
