17

C       5.73       3.65       7.69
O       7.21       0.92       1.73
O       3.47       3.60       5.80
O       4.88       4.29       4.16
C       6.04       1.06       2.28
C       4.62       3.70       5.40
H       7.70       2.45       6.37
H       7.95       2.12       3.89
H       4.96       1.49       4.13
C       6.83       2.61       5.74
C       5.75       3.24       6.26
C       6.96       2.12       4.33
C       5.93       1.58       3.65
O       6.85       3.93       8.28
O       4.56       3.77       8.25
H       4.04       4.57       3.68
O       4.92       0.77       1.70
