28

H       5.22       0.04      10.42
H       4.94      -3.04      13.98
H       4.97      -1.97      11.81
H       6.24       2.37      13.85
H       6.50       0.35      19.58
H       6.41       2.46      15.91
H       6.71       2.43      18.30
H       5.21      -2.97      16.37
C       5.75       2.54      11.27
C       5.26      -1.03      12.28
C       5.77       1.31      12.07
C       6.31       0.33      18.52
C       6.45       1.51      17.79
C       6.27       1.51      16.41
C       5.94       0.32      15.71
C       5.75      -0.87      16.47
C       5.80       0.27      14.29
C       5.43      -0.96      13.67
C       5.23      -2.10      14.44
C       5.39      -2.06      15.82
C       5.98       1.40      13.45
C       5.41       0.10      11.49
C       5.97      -0.86      17.87
C       6.00      -2.10      18.66
O       6.87       3.12      10.99
O       4.58       2.97      10.94
O       4.88      -2.69      18.94
O       7.17      -2.54      19.00
