488

C      14.84       8.37      67.23
C      14.03       7.25      67.24
C      13.75       6.90      65.91
C      15.04       8.76      65.90
C      15.77       9.91      65.48
C      15.86      10.35      64.13
C      15.62      10.46      61.90
C      16.26      11.63      62.32
C      16.43      11.55      63.69
C      15.31      10.11      60.56
C      14.75       8.87      60.15
C      13.82       6.82      60.16
C      14.07       7.18      58.84
C      14.62       8.44      58.83
C      13.22       5.60      60.58
C      12.94       5.25      61.93
C      12.81       5.34      64.16
C      12.17       4.18      63.74
C      12.27       4.11      62.36
C      12.98       5.77      65.51
C      12.32       4.99      66.51
C      13.00       3.95      67.20
C      12.29       3.09      68.06
C      10.90       3.23      68.26
C      10.23       4.27      67.57
C      10.93       5.14      66.72
C      12.93       4.63      59.57
C      13.86       3.60      59.30
C      13.65       2.71      58.23
C      12.52       2.84      57.39
C      11.57       3.84      57.69
C      11.77       4.73      58.76
C      15.61      11.06      59.54
C      14.59      11.89      59.02
C      14.85      12.74      57.93
C      16.12      12.78      57.33
C      17.14      11.95      57.85
C      16.89      11.10      58.94
C      16.48      10.68      66.46
C      15.83      11.67      67.22
C      17.88      10.55      66.58
C      18.61      11.40      67.43
C      17.97      12.39      68.19
C      16.56      12.52      68.08
C      14.72      22.64      39.33
C      13.91      23.75      39.32
C      13.67      24.13      40.65
C      14.96      22.27      40.66
C      15.72      21.14      41.08
C      15.84      20.71      42.43
C      15.61      20.61      44.66
C      16.31      19.47      44.24
C      16.47      19.55      42.87
C      15.28      20.94      46.00
C      14.66      22.16      46.40
C      13.73      24.21      46.39
C      13.86      23.79      47.72
C      14.41      22.53      47.73
C      13.17      25.45      45.98
C      12.92      25.81      44.63
C      12.78      25.72      42.40
C      12.20      26.92      42.82
C      12.30      26.98      44.19
C      12.92      25.28      41.05
C      12.26      26.06      40.05
C      12.94      27.07      39.34
C      12.24      27.94      38.48
C      10.84      27.83      38.31
C      10.16      26.81      39.02
C      10.86      25.94      39.88
C      12.90      26.42      46.99
C      13.96      27.21      47.50
C      13.74      28.10      48.57
C      12.47      28.21      49.17
C      11.40      27.45      48.64
C      11.62      26.55      47.57
C      15.61      20.00      47.02
C      14.65      19.06      47.46
C      14.92      18.23      48.56
C      16.14      18.32      49.25
C      17.11      19.24      48.79
C      16.85      20.08      47.69
C      16.43      20.38      40.09
C      15.80      19.36      39.36
C      17.83      20.55      39.95
C      18.57      19.71      39.10
C      17.94      18.68      38.37
C      16.54      18.52      38.51
C       2.03      22.69       3.72
C       2.84      23.81       3.71
C       3.12      24.16       5.03
C       1.83      22.30       5.05
C       1.09      21.16       5.47
C       1.00      20.71       6.82
C       1.24      20.61       9.05
C       0.59      19.44       8.63
C       0.43      19.52       7.26
C       1.55      20.95      10.39
C       2.12      22.19      10.80
C       3.05      24.25      10.78
C       2.80      23.89      12.11
C       2.26      22.62      12.12
C       3.65      25.47      10.37
C       3.93      25.81       9.02
C       4.05      25.72       6.78
C       4.69      26.89       7.21
C       4.60      26.95       8.58
C       3.89      25.30       5.44
C       4.55      26.07       4.43
C       3.88      27.11       3.75
C       4.58      27.97       2.88
C       5.98      27.82       2.69
C       6.64      26.79       3.38
C       5.94      25.91       4.23
C       3.94      26.44      11.38
C       3.01      27.47      11.65
C       3.22      28.35      12.72
C       4.35      28.23      13.56
C       5.30      27.23      13.26
C       5.10      26.34      12.18
C       1.25      20.01      11.41
C       2.27      19.18      11.93
C       2.02      18.32      13.02
C       0.74      18.29      13.62
C      23.91      19.12      13.10
C      -0.03      19.97      12.01
C       0.39      20.39       4.49
C       1.03      19.39       3.73
C      23.17      20.52       4.37
C      22.44      19.67       3.52
C      23.08      18.68       2.76
C       0.30      18.55       2.87
C       2.15       8.43      31.62
C       2.97       7.32      31.62
C       3.20       6.93      30.30
C       1.90       8.79      30.29
C       1.14       9.92      29.87
C       1.02      10.35      28.52
C       1.25      10.46      26.29
C       0.54      11.59      26.70
C       0.39      11.51      28.07
C       1.58      10.12      24.95
C       2.21       8.91      24.55
C       3.14       6.86      24.55
C       3.02       7.28      23.22
C       2.47       8.54      23.22
C       3.69       5.61      24.96
C       3.95       5.26      26.31
C       4.09       5.35      28.55
C       4.66       4.15      28.13
C       4.56       4.08      26.75
C       3.95       5.79      29.90
C       4.61       5.01      30.90
C       3.93       4.00      31.61
C       4.63       3.13      32.47
C       6.03       3.24      32.63
C       6.71       4.25      31.92
C       6.01       5.13      31.07
C       3.96       4.64      23.95
C       2.90       3.86      23.44
C       3.12       2.98      22.37
C       4.40       2.86      21.77
C       5.47       3.61      22.31
C       5.25       4.51      23.38
C       1.25      11.06      23.93
C       2.21      12.00      23.50
C       1.94      12.84      22.40
C       0.72      12.75      21.70
C      23.94      11.82      22.15
C       0.02      10.98      23.25
C       0.43      10.67      30.85
C       1.06      11.71      31.58
C      23.22      10.50      31.00
C      22.47      11.35      31.85
C      23.10      12.38      32.58
C       0.31      12.54      32.44
C      17.12      14.81      54.49
C      17.31      14.28      53.18
C      17.41      15.19      52.08
C      17.07      16.56      52.28
C      16.72      17.05      53.57
C      16.88      16.20      54.71
C      17.28      13.96      55.58
C      17.19      17.47      51.23
C      12.66      30.15      52.22
C      12.20      29.66      53.48
C      12.33      30.49      54.63
C      12.75       0.70      54.46
C      12.98       1.25      53.16
C      13.07       0.36      52.05
C      12.98      29.23      51.23
C      13.14       1.46      55.56
C      23.93      16.26      16.46
C      23.75      16.79      17.77
C      23.64      15.88      18.87
C      23.98      14.51      18.67
C       0.14      14.01      17.38
C      -0.02      14.87      16.24
C      23.77      17.11      15.37
C      23.86      13.60      19.72
C       4.21       0.92      18.73
C       4.67       1.41      17.47
C       4.54       0.58      16.31
C       4.12      30.36      16.48
C       3.90      29.82      17.78
C       3.80      30.70      18.90
C       3.89       1.84      19.72
C       3.72      29.61      15.38
C      19.52      14.75      70.49
C      19.58      16.15      70.20
C      20.61      16.95      70.79
C      21.53      16.32       0.46
C      21.47      14.92       0.75
C      20.43      14.12       0.16
C      18.50      13.98      69.92
C      22.54      17.09       1.03
C      19.52      16.32      36.09
C      19.58      14.92      36.38
C      20.63      14.13      35.79
C      21.53      14.73      34.86
C      21.46      16.13      34.57
C      20.42      16.92      35.15
C      18.49      17.09      36.65
C      22.55      13.97      34.29
C       9.39      30.28      36.07
C       9.40       0.51      36.41
C       8.39       1.34      35.84
C       7.49       0.79      34.88
C       7.47      30.56      34.53
C       8.49      29.73      35.10
C      10.38      29.47      36.63
C       6.50       1.60      34.32
C       9.44       0.79      70.50
C       9.33      30.56      70.17
C       8.31      29.73      70.74
C       7.44      30.26       0.44
C       7.54       0.49       0.77
C       8.57       1.32       0.20
C      10.43       1.59      69.94
C       6.45      29.46       1.00
H      16.06      13.25      68.59
H      14.82      11.82      67.12
H      19.63      11.29      67.47
H      18.38       9.86      66.01
H      15.19       8.84      68.06
H      13.73       6.77      68.08
H      14.34       7.85      64.20
H      14.17       7.91      61.87
H      16.86      12.28      64.26
H      16.59      12.40      61.74
H      13.65      11.86      59.42
H      14.08      13.32      57.57
H      17.64      10.49      59.28
H      18.07      11.94      57.42
H      14.91       8.94      57.98
H      13.88       6.63      58.00
H      11.74       3.46      64.32
H      11.88       3.36      61.78
H      14.71       3.51      59.86
H      14.35       1.98      58.06
H      11.09       5.47      58.93
H      10.74       3.96      57.10
H      10.41       5.86      66.21
H       9.22       4.39      67.68
H      12.80       2.31      68.50
H      13.99       3.79      67.03
H      16.06      17.76      38.02
H      14.80      19.18      39.48
H      19.59      19.84      39.04
H      18.32      21.27      40.49
H      15.06      22.16      38.49
H      13.59      24.23      38.48
H      14.32      23.22      42.36
H      14.28      23.22      44.69
H      16.94      18.84      42.31
H      16.69      18.72      44.83
H      13.73      19.01      47.00
H      14.19      17.58      48.87
H      17.55      20.77      47.41
H      18.01      19.34      49.27
H      14.62      22.00      48.57
H      13.58      24.30      48.56
H      11.80      27.65      42.23
H      11.96      27.75      44.77
H      14.90      27.13      47.10
H      14.53      28.65      48.91
H      10.84      25.98      47.23
H      10.47      27.51      49.05
H      10.33      25.24      40.41
H       9.15      26.72      38.95
H      12.76      28.69      38.01
H      13.95      27.21      39.48
H       0.79      17.81       2.37
H       2.04      19.25       3.83
H      21.42      19.78       3.48
H      22.67      21.21       4.94
H       1.68      22.22       2.89
H       3.14      24.29       2.86
H       2.52      23.22       6.75
H       2.69      23.16       9.08
H      -0.01      18.79       6.69
H       0.26      18.67       9.22
H       3.21      19.20      11.53
H       2.78      17.75      13.38
H      23.41      20.59      11.68
H      22.98      19.13      13.53
H       1.96      22.12      12.97
H       2.99      24.43      12.95
H       5.13      27.60       6.62
H       4.99      27.70       9.16
H       2.16      27.56      11.08
H       2.52      29.08      12.89
H       5.78      25.59      12.02
H       6.13      27.11      13.85
H       6.46      25.20       4.74
H       7.66      26.67       3.28
H       4.07      28.74       2.44
H       2.88      27.27       3.91
H       0.79      13.31      32.92
H       2.06      11.88      31.47
H      21.46      11.22      31.91
H      22.73       9.79      30.46
H       1.82       8.91      32.46
H       3.29       6.84      32.47
H       2.53       7.83      28.59
H       2.58       7.85      26.26
H      24.10      12.22      28.64
H       0.17      12.34      26.11
H       3.13      12.07      23.96
H       2.67      13.50      22.09
H      23.51      10.29      23.53
H      23.04      11.72      21.67
H       2.25       9.07      22.38
H       3.30       6.77      22.38
H       5.06       3.41      28.72
H       4.90       3.31      26.18
H       1.96       3.95      23.83
H       2.33       2.42      22.02
H       6.03       5.07      23.73
H       6.40       3.54      21.90
H       6.54       5.83      30.53
H       7.72       4.34      31.99
H       4.11       2.38      32.94
H       2.92       3.86      31.47
H      18.28      13.89      50.74
H      17.98      15.36      50.11
H      17.24      12.29      53.70
H      17.30      12.54      52.09
H      16.05      18.90      52.96
H      15.80      18.62      54.54
H      16.99      16.16      56.76
H      16.87      17.66      56.15
H      18.19      13.63      55.80
H      17.96      18.09      51.24
H      12.07      29.03      56.06
H      12.22      30.52      56.69
H      11.50      27.86      52.77
H      11.18      28.10      54.35
H      12.97       3.22      53.75
H      13.08       3.02      52.14
H      13.62       0.23      50.06
H      13.97       1.67      50.74
H      13.84      28.73      51.33
H      14.12       1.55      55.72
H      22.78      17.18      20.21
H      23.07      15.71      20.85
H      23.82      18.78      17.25
H      23.76      18.53      18.86
H       0.80      12.16      17.99
H       1.05      12.45      16.41
H      24.07      14.91      14.19
H      -0.00      13.41      14.80
H      22.86      17.44      15.15
H      23.09      12.98      19.71
H       4.78       2.04      14.89
H       4.63       0.55      14.25
H       5.37       3.21      18.17
H       5.68       2.97      16.59
H       3.92      27.85      17.20
H       3.81      28.04      18.81
H       3.25      30.83      20.88
H       2.90      29.39      20.21
H       3.03       2.34      19.61
H       2.75      29.51      15.23
H      20.34      18.65      69.66
H      21.50      18.81      70.79
H      17.91      16.21      68.98
H      18.50      17.68      69.34
H      23.14      14.86       1.97
H      22.55      13.39       1.61
H      19.55      12.26       0.17
H      20.70      12.42       1.29
H      17.59      14.05      70.30
H      23.46      17.02       0.65
H      20.36      12.42      36.92
H      21.52      12.27      35.81
H      17.91      14.85      37.59
H      18.51      13.39      37.24
H      23.13      16.20      33.36
H      22.53      17.67      33.71
H      19.51      18.78      35.14
H      20.68      18.63      34.02
H      17.58      17.00      36.28
H      23.46      14.05      34.67
H       8.67       2.99      37.04
H       7.52       3.21      35.92
H      11.07       0.50      37.63
H      10.50       1.99      37.34
H       5.81      30.57      33.30
H       6.38      29.08      33.59
H       9.35      27.85      35.03
H       8.20      28.06      33.91
H      11.30      29.53      36.27
H       5.57       1.54      34.68
H       8.58      28.07      69.55
H       7.43      27.86      70.68
H      10.99      30.56      68.93
H      10.41      29.07      69.23
H       5.89       0.50       2.01
H       6.46       1.98       1.70
H       9.44       3.19       0.27
H       8.29       2.98       1.39
H      11.36       1.52      70.29
H       5.52      29.53       0.65
N      14.37       7.84      65.16
N      15.39       9.74      63.02
N      14.25       7.87      60.91
N      13.25       5.95      63.04
N      12.30       2.07      56.32
N      16.26      13.58      56.27
N      18.74      13.20      68.92
N      10.15       2.39      68.97
N      14.31      23.21      41.40
N      15.34      21.31      43.54
N      14.22      23.19      45.65
N      13.19      25.09      43.52
N      12.23      29.02      50.20
N      16.29      17.53      50.32
N      18.73      17.87      37.64
N      10.10      28.67      37.60
N       2.49      23.23       5.79
N       1.47      21.33       7.93
N       2.62      23.20      10.04
N       3.62      25.11       7.91
N       4.57      29.00      14.63
N       0.60      17.49      14.68
N      22.30      17.87       2.03
N       6.73      28.66       1.97
N       2.55       7.86      29.55
N       1.52       9.75      27.41
N       2.65       7.87      25.30
N       3.68       5.98      27.42
N       4.63       2.04      20.75
N       0.57      13.53      20.63
N      22.32      13.18      33.30
N       6.77       2.40      33.35
N      17.86      14.76      50.86
N      17.36      12.93      52.98
N      16.22      18.32      53.72
N      16.83      16.71      55.98
N      12.15      29.98      55.89
N      11.66      28.40      53.56
N      13.10       2.60      53.01
N      13.55       0.81      50.84
N      23.19      16.31      20.09
N      23.69      18.14      17.98
N       0.63      12.74      17.23
N       0.03      14.36      14.97
N       4.71       1.09      15.05
N       5.21       2.66      17.38
N       3.77      28.46      17.94
N       3.32      30.26      20.11
N      20.79      18.26      70.43
N      18.62      16.72      69.40
N      22.43      14.35       1.55
N      20.26      12.81       0.53
N      20.81      12.82      36.16
N      18.63      14.34      37.18
N      22.42      16.71      33.77
N      20.23      18.23      34.78
N       8.22       2.64      36.26
N      10.36       1.04      37.24
N       6.51      30.03      33.70
N       8.65      28.43      34.69
N       8.14      28.43      70.33
N      10.29      30.02      69.34
N       6.59       1.03       1.60
N       8.74       2.62       0.62
