60

C      -1.20       9.69      24.64
C      -1.80      13.36      26.85
C      -1.99      14.56      27.70
O      -2.53      17.58      31.65
O       2.57       6.73      29.84
C      -2.42      17.89      30.40
C       0.39       7.97      23.99
C       0.61       7.66      28.90
H       1.01      11.00      28.32
C      -1.19      10.97      26.82
H       1.38       7.54      24.02
C      -1.89      12.09      24.78
C      -0.23       6.13      22.45
O      -2.42      19.07      29.92
C       1.17       8.95      28.95
C      -1.21       8.54      27.56
H      -1.00      15.99      26.39
C      -2.03      13.31      25.45
H      -2.64       7.40      22.54
C      -1.87      16.34      23.17
C      -2.73      15.48      29.84
C      -0.64       9.83      27.58
C       0.55      10.02      28.31
H      -1.16      12.22      28.56
H      -1.13      16.91      22.61
C      -3.22      16.73      23.12
C      -1.51      15.84      27.34
C      -1.89       7.90      23.14
C      -3.65      17.90      22.31
H      -3.17       9.52      23.77
C      -0.60       7.35      23.21
C      -3.78      14.89      24.60
C       1.30       6.52      29.57
C      -1.38      12.18      27.49
C      -1.66      16.92      28.21
C      -1.47      10.92      25.43
C      -2.18       9.08      23.84
H      -5.22      16.29      23.82
H      -1.04       6.48      28.17
C      -2.60      14.41      28.96
C       0.09       9.13      24.70
C      -0.60       7.48      28.21
C      -2.43      14.51      24.66
H      -0.43      14.94      23.97
H      -2.99      13.43      29.25
H       0.85       9.60      25.31
C      -1.48      15.24      23.93
C      -4.17      16.00      23.85
O      -4.90      18.20      22.34
H       2.11       9.08      29.48
H      -2.08      12.07      23.71
H      -1.28      17.91      27.94
H      -4.54      14.33      25.14
O       1.03       5.85      22.34
H      -3.21      15.35      30.81
C      -2.27      16.75      29.46
H      -2.14       8.39      27.01
O      -1.11       5.37      21.90
O       0.71       5.45      29.86
O      -2.79      18.57      21.65
