16

C      -0.71       6.28       4.46
O      -0.25       5.63       7.32
O      -2.14       7.06       0.68
O      -3.66       8.57       1.56
C      -1.06       6.77       3.20
H      -3.76       6.46       5.99
C      -3.01       6.57       5.21
C      -1.35       5.44       6.72
C      -1.69       6.16       5.45
C      -2.78       7.69       1.58
O      -2.18       4.55       7.10
H      -0.34       6.80       2.39
C      -2.38       7.19       2.98
H      -4.36       7.47       3.78
C      -3.35       7.12       3.98
H       0.30       5.94       4.65
