60

C       1.77      12.37      10.79
O      -0.31       8.53       8.71
C      -0.21      15.40      11.10
C       0.95      15.78      13.58
C       3.99      12.72      14.59
C       0.19      21.65      16.24
O      -1.80      21.81       8.14
C       3.21      13.74      14.04
C       3.46      11.43      14.75
C       2.13      11.18      14.38
C       1.82      11.13      10.17
C      -2.61      21.12       8.87
C       0.12      20.44      15.37
C      -2.06      19.94       9.59
C       0.24      16.85      13.01
C      -0.06      18.03      15.18
H       1.72      10.19      14.53
C       1.10      14.54      12.95
C      -0.32      16.65      11.71
C      -0.64      12.38      10.57
C      -0.84      19.38       9.17
H       3.63      14.73      13.89
H      -3.71      19.79      10.97
C       1.89      13.48      13.62
C      -0.59      11.13       9.96
H      -1.60      12.86      10.77
C       0.47      14.32      11.70
C      -0.98      17.75      10.97
C       1.36      12.19      13.81
C      -2.20      18.31      11.38
H       0.44      19.47      12.12
H       0.39      21.51      13.52
H       5.02      12.90      14.89
C       4.28      10.32      15.31
H       1.42      15.92      14.55
H      -0.67      15.25      10.13
C       0.74       9.19       9.02
H      -2.73      17.89      12.23
C      -0.06      19.17      15.96
H       2.77      10.63      10.01
C       0.26      20.53      13.98
H      -1.50      10.62       9.64
C       0.13      18.10      13.78
C       0.64      10.50       9.73
H       0.34      11.97      13.50
H      -0.18      19.10      17.04
C      -2.75      19.37      10.67
C       0.28      19.38      13.19
H      -0.31      19.83       8.33
H      -0.21      17.06      15.65
O       5.54      10.53      15.56
O       0.28      21.41      17.49
O       1.90       8.76       8.71
C       0.53      13.02      11.00
O       0.15      22.80      15.68
O       3.75       9.20      15.55
H       2.68      12.85      11.13
H       0.62      17.84       9.52
C      -0.32      18.27       9.83
O      -3.84      21.39       9.03
