60

C      -1.16      -3.09      26.31
C       0.09      -5.25      27.63
O       4.35     -13.63      32.87
O       1.98     -13.00      23.56
O       1.87     -14.49      25.29
C       0.64      -6.39      28.39
H       4.67     -11.71      31.39
C       3.23     -10.31      30.60
C       1.48      -8.74      29.75
H       2.44      -8.85      25.96
H       2.09      -2.82      32.66
H      -2.66      -4.51      25.73
C       2.19     -10.90      25.37
C       0.93     -10.66      31.27
H       0.61      -7.64      26.65
H       0.73     -13.33      27.27
H      -0.12     -10.36      31.24
H       1.59      -3.81      28.19
H       0.49      -1.90      27.03
C       0.05      -2.77      32.00
C       2.67     -12.15      32.09
H      -1.93      -2.96      31.19
C       1.72     -12.17      25.75
C       1.88      -9.93      30.55
H      -1.40      -5.02      29.89
C       0.05      -2.90      27.00
H       1.53      -7.49      31.50
C      -1.85      -1.94      25.64
C       1.25      -8.78      28.36
C       1.34      -7.51      30.42
C       3.62     -11.42      31.36
H       3.99      -9.75      30.07
C       0.96     -11.26      27.87
C      -0.94      -3.40      31.22
C       1.44      -9.98      27.51
C       1.63      -4.50      31.37
C       1.12     -12.35      27.00
C       1.32     -11.76      32.04
C      -1.72      -4.37      26.26
C       0.65      -5.12      30.57
C       0.92      -6.34      29.78
H       0.45     -11.41      28.81
C      -0.32      -1.55      32.76
C       1.34      -3.33      32.06
C       1.87     -13.31      24.81
C      -0.64      -4.55      30.51
C       0.83      -7.61      27.72
C       2.05      -9.83      26.25
O      -1.26      -0.88      25.35
C      -1.10      -5.44      26.90
O      -1.58      -1.27      32.86
O       0.56      -0.79      33.30
H       2.62      -4.94      31.43
O      -3.12      -2.15      25.37
H      -1.56      -6.42      26.89
C       0.66      -3.97      27.65
H       2.66     -10.77      24.40
C       3.10     -13.32      32.90
O       2.24     -13.99      33.56
H       0.58     -12.33      32.60
