12

Cu       0.27       2.81      11.49
O       0.29       4.76      11.54
O       0.68       0.90      11.48
O       0.29       2.62      13.42
C       1.36       5.47      11.68
O       0.67       3.04       9.60
C      -2.19       1.72      10.25
C       1.37       2.63      14.17
C       1.87       3.24       9.11
C       1.87       0.41      11.59
N      -2.58       3.27      12.01
N      -1.75       2.61      11.27
