16

H       8.03      12.70      13.93
H       6.94      13.09      11.91
H       6.22       9.11      11.51
H       7.16       8.74      13.62
C       8.41      10.43      15.28
C       7.70      10.68      13.96
C       7.64      11.98      13.45
C       7.01      12.20      12.24
C       6.48      11.14      11.51
C       6.56       9.84      12.02
C       7.14       9.62      13.25
C       5.82      11.40      10.21
O       9.13      11.36      15.70
O       8.21       9.32      15.85
O       5.77      12.59       9.77
O       5.29      10.47       9.53
