16

O       5.78      11.78       6.87
O       6.70       9.74       7.02
O       9.14      13.01       0.94
O       9.62      10.89       0.70
H       6.88      13.12       5.10
H       7.98      13.51       3.08
H       8.69       9.54       2.68
H       7.75       9.16       4.79
C       6.50      10.85       6.45
C       7.21      11.10       5.12
C       7.27      12.40       4.62
C       7.90      12.63       3.41
C       8.43      11.57       2.68
C       8.35      10.27       3.19
C       7.77      10.04       4.42
C       9.09      11.82       1.37
