16

H       3.72       3.67       6.15
C       1.53       2.36       2.38
C       2.24       2.10       3.71
C       2.30       0.81       4.22
C       2.93       0.58       5.42
C       3.46       1.64       6.15
C       3.38       2.94       5.65
C       2.80       3.17       4.41
C       4.12       1.38       7.46
H       2.78       4.04       4.04
H       1.91       0.09       3.73
O       1.73       3.46       1.82
O       4.17       0.19       7.90
O       4.65       2.32       8.13
O       0.81       1.43       1.96
H       3.01      -0.31       5.76
