16

C       3.28       9.70       6.64
C       2.66       9.09       5.39
C       2.14       9.91       4.40
C       1.58       9.38       3.25
O       3.09      10.93       6.84
O       3.94       8.96       7.41
C       2.65       7.70       5.23
H       2.16      10.85       4.52
H       3.00       7.13       5.90
C       2.10       7.17       4.08
H       1.22       9.95       2.58
C       1.56       7.98       3.09
C       0.97       7.38       1.82
H       2.10       6.23       3.96
O       1.23       6.20       1.60
O       0.22       8.13       1.13
