96

Li      10.11       6.52       9.34
Li       0.94       4.53       9.34
Li       6.52       0.94       1.82
Li       4.53      10.11       1.82
Li       0.94       6.52       7.41
Li      10.11       4.53       7.41
Li       4.53       0.94       3.75
Li       6.52      10.11       3.75
H       2.30       5.77       0.46
H       1.40       9.10       9.01
H       3.63       7.34       1.85
H       2.77      10.54      10.51
H       8.75       5.28       0.46
H       9.65       1.95       9.01
H       7.42       3.71       1.85
H       8.28       0.51      10.51
H       5.77       8.75      10.70
H       9.10       9.65       2.15
H       7.34       7.42       9.31
H      10.54       8.28       0.65
H       5.28       2.30      10.70
H       1.95       1.40       2.15
H       3.71       3.63       9.31
H       0.51       2.77       0.65
H       8.75       5.77       5.13
H       9.65       9.11       7.73
H       7.43       7.33       3.73
H       8.28      10.54       6.23
H       2.30       5.28       5.13
H       1.40       1.94       7.73
H       3.62       3.72       3.73
H       2.77       0.51       6.23
H       5.28       8.75       6.03
H       1.94       9.65       3.43
H       3.72       7.43       7.43
H       0.51       8.28       4.93
H       5.77       2.30       6.03
H       9.11       1.40       3.43
H       7.33       3.62       7.43
H      10.54       2.77       4.93
C       2.38       6.82       0.18
C       1.88       8.68       9.89
C       3.13       7.70       0.96
C       2.65       9.47      10.73
C       1.74       7.29      10.17
C       8.67       4.23       0.18
C       9.17       2.37       9.89
C       7.92       3.35       0.96
C       8.40       1.58      10.73
C       9.31       3.76      10.17
C       6.82       8.67      10.98
C       8.68       9.17       1.27
C       7.70       7.92      10.20
C       9.47       8.40       0.43
C       7.29       9.31       0.99
C       4.23       2.38      10.98
C       2.37       1.88       1.27
C       3.35       3.13      10.20
C       1.58       2.65       0.43
C       3.76       1.74       0.99
C       8.67       6.82       5.41
C       9.16       8.68       6.85
C       7.93       7.70       4.63
C       8.40       9.47       6.01
C       9.31       7.29       6.58
C       2.38       4.23       5.41
C       1.89       2.37       6.85
C       3.12       3.35       4.63
C       2.65       1.58       6.01
C       1.74       3.76       6.58
C       4.23       8.67       5.75
C       2.37       9.16       4.31
C       3.35       7.93       6.53
C       1.58       8.40       5.15
C       3.76       9.31       4.58
C       6.82       2.38       5.75
C       8.68       1.89       4.31
C       7.70       3.12       6.53
C       9.47       2.65       5.15
C       7.29       1.74       4.58
N       3.28       9.02       0.68
N       7.77       2.03       0.68
N       9.02       7.77      10.48
N       2.03       3.28      10.48
N       7.77       9.02       4.90
N       3.28       2.03       4.90
N       2.03       7.77       6.26
N       9.02       3.28       6.26
O       1.04       6.49       9.39
O      10.01       4.56       9.39
O       6.49      10.01       1.77
O       4.56       1.04       1.77
O       9.99       6.49       7.37
O       1.06       4.56       7.37
O       4.56       9.99       3.79
O       6.49       1.06       3.79
