9

Mg       7.89       7.15      11.43
O       9.32       8.08      10.36
C       5.78       7.32      13.21
C      10.00       7.28       9.63
O       8.67       6.10      12.93
C       9.01       4.87      12.81
O       7.10       6.12       9.92
C       6.80       4.88      10.05
O       6.50       8.13      12.52
