103

H       0.19       4.60       9.40
H       2.18       3.90      11.05
H       5.18      -0.45      11.42
H       4.78      -3.06      10.78
H       0.53      -5.69       8.97
H      -1.43      -5.00       7.26
H      -2.72      -0.49       4.85
H      -2.20       2.13       5.35
H       4.73       3.20      10.18
H       6.19       4.40      11.81
H       4.68       1.91      14.97
H       3.26       0.71      13.35
H       6.53       2.62      15.83
H       5.58       4.08      16.22
H       8.76       4.74      17.77
H       2.71      -4.01      12.21
H       3.37      -6.13      13.26
H       3.51      -8.00       9.39
H       2.92      -5.82       8.32
H       4.89      -7.80      13.52
H       4.61      -9.54      13.35
H      -0.84      -3.91       4.72
H      -2.38      -5.02       3.10
H      -5.74      -3.23       5.14
H      -4.21      -2.15       6.73
H      -6.32      -3.19       2.93
H      -6.91      -4.72       3.61
H      -8.33      -4.56       0.43
H       0.59       4.85       6.92
H      -0.53       6.98       6.34
H      -4.37       5.08       6.84
H      -3.26       3.00       7.47
H      -4.64       8.67       6.31
H      -4.88       7.16       7.21
H      -7.05       6.93       4.42
C       0.32       2.48       8.71
C       0.67       3.64       9.48
C       1.67       3.27      10.33
C       1.94       1.88      10.09
C       2.97       1.18      10.70
C       3.18      -0.18      10.46
C       4.32      -0.91      10.94
C       4.12      -2.21      10.62
C       2.85      -2.29       9.95
C       2.21      -3.49       9.64
C       1.02      -3.51       8.91
C       0.29      -4.71       8.60
C      -0.71      -4.35       7.74
C      -0.63      -2.93       7.56
C      -1.46      -2.21       6.71
C      -1.38      -0.82       6.61
C      -2.11      -0.06       5.63
C      -1.85       1.25       5.88
C      -0.98       1.30       7.03
C      -0.60       2.48       7.67
C       3.87       1.89      11.65
C       4.70       2.94      11.23
C       5.51       3.62      12.13
C       5.51       3.26      13.49
C       4.70       2.20      13.93
C       3.90       1.53      13.01
C       6.45       3.70      15.66
C       7.73       4.34      16.17
C       2.74      -4.76      10.19
C       2.90      -4.87      11.58
C       3.28      -6.08      12.18
C       3.48      -7.20      11.38
C       3.34      -7.11       9.99
C       2.99      -5.90       9.40
C       4.14      -8.55      13.24
C       2.96      -8.50      14.22
C      -2.41      -2.93       5.82
C      -1.92      -3.76       4.80
C      -2.77      -4.37       3.88
C      -4.15      -4.14       3.97
C      -4.67      -3.36       5.01
C      -3.80      -2.76       5.92
C      -6.25      -4.29       2.84
C      -6.76      -4.69       1.48
C      -1.25       3.76       7.26
C      -0.50       4.90       6.93
C      -1.12       6.10       6.59
C      -2.53       6.19       6.55
C      -3.29       5.05       6.86
C      -2.65       3.86       7.21
C      -4.47       7.58       6.29
C      -5.22       7.05       5.07
N       1.07       1.38       9.12
N       2.30      -1.02       9.79
N       0.42      -2.40       8.31
N      -0.65       0.01       7.44
O       6.35       4.00      14.27
O       8.60       4.76      15.41
O       7.79       4.36      17.49
O       3.81      -8.45      11.86
O       1.77      -8.56      13.80
O       3.28      -8.46      15.46
O      -4.91      -4.74       2.98
O      -8.03      -4.23       1.30
O      -6.17      -5.33       0.62
O      -3.05       7.41       6.21
O      -6.54       7.10       5.28
O      -4.68       6.68       4.03
