42

La       6.90       8.24       7.75
La       6.09       8.90       3.38
La       6.67      13.51       3.02
La       7.48      12.85       7.39
C       5.23      10.97       9.34
C       9.74      12.30       9.29
C       9.37       9.68       7.00
C      10.44      10.28       6.17
C       4.98      10.56       6.02
C       3.89       6.01       3.98
C       8.33       7.13       4.54
C       8.34      10.78       1.43
C       3.82       9.45       1.48
C       4.20      12.07       3.76
C       3.12      11.47       4.60
C       8.59      11.19       4.75
C       8.08       5.15       6.79
C       5.24      14.62       6.22
O       5.53       9.41       5.87
O       7.41       7.45       5.37
O       8.57      12.07       9.69
O       9.96      12.89       8.22
O       5.53      11.57       6.44
O       5.90      12.01       9.14
O       8.25       7.46       3.34
O       9.48       8.52       7.45
O       8.30      10.37       7.20
O       4.63       6.91       4.40
O       4.12       5.30       2.94
O       5.44       9.84       8.80
O       8.04      12.34       4.90
O       6.16      14.30       5.40
O       5.00       9.68       1.08
O       3.60       8.86       2.54
O       8.03      10.18       4.33
O       7.67       9.74       1.63
O       5.32      14.29       7.42
O       4.09      13.23       3.31
O       5.26      11.38       3.57
O       8.94      14.83       6.37
O       7.85       5.85       7.82
O       8.13      11.91       1.96
