11

N      13.71       6.73       7.00
C      13.33       4.72       7.84
N      13.34       5.65       8.84
N      13.56       6.87       8.32
O      12.89       2.41       7.34
O      13.18       3.08       9.48
C      13.58       5.42       6.65
O      14.01       6.05       4.44
O      13.64       3.87       4.83
C      13.74       5.08       5.23
C      13.13       3.33       8.23
