54

C       5.24      10.68      17.02
C       4.83      12.15      18.75
C       4.49      13.12      17.83
C       4.56      12.81      16.45
C       4.28      13.74      15.40
C       4.52      13.43      14.03
C       4.36      14.42      13.07
C       3.93      15.70      13.44
C       3.79      15.04      15.66
C       5.76       9.10      14.78
C       6.05       7.71      14.29
C       5.14       6.67      14.55
C       5.40       5.36      14.15
C       6.60       5.08      13.48
C       7.51       6.10      13.21
C       7.24       7.42      13.61
C       4.37       4.29      14.42
C       5.09       2.97      16.81
C       5.50       1.96      18.79
C       5.14       3.12      19.46
C       4.76       4.24      18.68
C       4.30       5.50      19.26
C       3.82       6.55      18.46
C       3.37       7.73      19.04
C       3.40       7.86      20.43
C       4.32       5.73      20.66
H       4.80      12.35      19.81
H       4.18      14.10      18.20
H       4.85      12.43      13.77
H       4.58      14.22      12.02
H       3.78      16.49      12.71
H       3.50      15.32      16.68
H       6.52       9.82      14.47
H       4.77       9.47      14.47
H       4.22       6.89      15.10
H       6.82       4.06      13.18
H       8.43       5.88      12.67
H       7.95       8.21      13.40
H       3.64       4.64      15.16
H       3.83       4.02      13.50
H       5.81       1.07      19.34
H       5.18       3.16      20.54
H       3.81       6.41      17.38
H       2.97       8.55      18.44
H       3.05       8.76      20.92
H       4.72       4.99      21.35
S       5.74       9.04      16.61
S       5.03       2.71      15.04
N       5.21      10.89      18.37
N       4.93      11.53      16.07
N       3.58      15.97      14.73
N       5.48       1.85      17.44
N       4.74       4.14      17.31
N       3.88       6.87      21.22
