26

H       7.82       3.12       8.69
H       6.55       3.63       6.61
H       2.20       4.19       4.33
H       3.39       8.51       2.34
N       2.40       6.71       2.10
H       1.47       4.84       2.07
N       6.21       3.41       9.95
H       3.18       6.22       6.84
H       4.80       6.16       6.19
H       3.04       4.14       9.06
H       4.20       8.00       4.65
H       4.49       3.69      11.07
H       2.86       3.80       6.53
H       4.34       3.68       5.57
C       6.77       3.40       8.73
C       6.05       3.67       7.57
C       3.28       6.04       4.70
C       4.68       3.94       7.65
C       2.49       5.16       3.95
C       3.16       7.56       2.83
C       2.07       5.53       2.67
C       3.80       5.71       6.09
C       4.10       3.95       8.93
C       3.60       7.27       4.11
C       4.89       3.69      10.05
C       3.88       4.21       6.41
