26

C       4.57       0.75       6.00
C       2.36       0.87       7.25
H      -2.57       0.28       5.25
H      -2.57      -0.26       9.39
H      -0.12       0.01       5.13
C      -1.99       0.09       6.16
C      -1.99      -0.23       8.46
H      -0.10      -0.55       9.42
H       1.95      -1.10       8.08
H       1.89      -1.04       6.31
C      -0.61      -0.06       6.10
C       0.12      -0.32       7.27
N      -2.69      -0.02       7.32
C      -0.60      -0.38       8.47
C       1.61      -0.49       7.22
N       6.66       0.39       7.15
H       6.53       0.09       9.22
H       6.53       0.64       5.09
H       4.08       0.36       9.34
C       5.96       0.29       8.31
C       5.96       0.60       6.01
H       4.06       0.93       5.05
H       2.02       1.47       6.39
H       2.07       1.41       8.16
C       4.58       0.43       8.37
C       3.85       0.69       7.20
