26

C      10.96       9.02       3.73
C      10.01       3.02       7.50
N       9.25       2.27       6.66
N      13.07      10.03       3.16
H      14.68       8.75       2.91
H      13.41       6.69       3.46
H       9.06       4.43       4.08
H      10.24       2.56       8.46
H       8.33       2.19       4.80
H      10.04       7.00       6.05
H      11.67       6.34       6.00
C      13.63       8.80       3.18
H       9.90       9.16       3.91
H      11.06       4.85       7.89
H      11.35      11.15       3.41
C       9.35       4.08       5.07
H       9.72       6.61       3.63
H      11.20       5.65       3.54
C       8.93       2.81       5.47
C      10.66       6.23       5.56
C      12.91       7.65       3.48
C      10.14       4.86       5.93
C      11.54       7.74       3.74
C      10.46       4.29       7.17
C      11.75      10.14       3.44
C      10.73       6.51       4.05
