286

Co      22.99       9.70      15.09
Co      22.50      15.30       5.16
Co      14.27      22.98      18.15
Co       7.03       9.84       8.52
Co       6.65       6.49      16.14
Co       6.14      12.15       6.34
Co       8.71      10.29      17.03
Co       8.65       7.17      18.19
Co      24.28      12.70      15.01
Co       7.97      16.07       7.29
Co       8.00      12.93       8.44
Co      23.48      18.44       5.24
H       9.58       7.91       8.25
H       9.93       8.70       4.84
H      16.88      21.06      17.70
H      19.37      16.57      14.69
H      17.47      19.53      13.88
H      17.82      21.10       6.10
H      19.08      17.70       2.71
H      12.45      19.75       2.64
H      11.78      18.69       7.44
H       6.33       5.72       3.17
H      19.25      11.69      13.80
H      11.86      12.23      12.75
H      13.71      14.57      16.71
H      12.84      21.32      13.59
H      21.48      19.55       9.99
H      17.83       4.33       8.44
H      14.26       9.34       7.58
H      20.17       9.95      10.36
H      16.49       8.44       7.41
H      25.26      17.58      18.49
H      22.28      13.65      18.88
H      21.58      22.56      17.38
H      19.78      15.93       0.86
H      23.73      21.42      17.16
C      23.56      11.22      12.52
C      21.41      12.40      15.30
C      20.52      14.74      14.67
C      17.39      22.27      13.89
C       6.81      17.30       1.44
C       7.10      11.36      11.03
C      20.61      17.68       4.91
C       9.15       8.05       4.45
C      10.92       6.31       3.97
C      19.38      15.52      14.42
C      20.41      13.31      14.63
C      16.23      21.30      13.99
C      14.56      22.74      15.17
C       9.47       6.72       4.09
C       7.45       9.48       5.55
C      18.12      20.37       5.35
C      18.85      19.24       5.74
C      19.18      19.05       7.21
C      16.46      19.92      13.80
C      19.29      18.31       4.76
C       7.82       8.50       4.50
C      14.89      21.77      14.10
C      11.04       1.59       4.05
C      18.78      18.42       3.46
C      18.26      14.96      13.81
C      19.31      12.76      13.95
C      18.03      19.55       3.07
C      21.86      15.45      14.82
C      22.78      18.37      19.10
C      21.31      20.20      18.70
C      15.82      13.48       0.37
C      15.55       5.29       9.46
C      16.23       7.50       9.87
C      14.07       7.10       9.10
C      15.57      17.57      13.73
C      14.67      15.49      14.41
C      16.95      15.65      13.92
C       8.52       4.32       3.94
C       7.46       2.24       4.24
C       9.76       2.31       3.87
C      24.77      13.15      17.86
C      27.85      23.46      17.55
C      17.10      23.72      18.14
C      10.59      11.72      15.05
C      23.35      18.86       8.15
C       7.08      16.95       2.73
C      20.65      10.33       7.76
C       9.85      10.59       8.47
C       9.86      17.79       5.80
C      10.99       0.79       1.63
C      12.25      19.56       3.69
C      12.89      20.34       4.66
C      12.72      20.03       6.03
C      11.93      18.93       6.39
C      11.20      18.24       5.43
C      11.50      18.45       4.06
C      11.08      17.45       2.99
C      13.40      20.86       7.11
C       7.12       6.37       3.54
C       8.40       5.82       3.78
C       6.82       7.70       3.89
C       5.40       8.21       3.77
C      18.32      13.60      13.40
C      17.33      13.03      12.40
C      12.29      12.74      13.61
C      11.92      12.31      14.89
C      12.57      12.88      16.01
C      13.27      14.09      15.85
C      13.52      14.60      14.57
C      13.00      13.93      13.43
C      13.04      14.58      12.06
C      12.59      12.15      17.34
C      15.40      19.05      13.52
C      14.13      19.62      13.21
C      13.86      20.95      13.60
C      13.09      18.86      12.41
C      22.15      20.35       9.72
C      23.34      20.05       9.04
C      24.24      21.11       8.78
C      17.19       3.53       8.79
C      15.93       3.84       9.33
C      21.75      21.70       9.92
C      20.48      21.98      10.70
C      25.70      20.84       8.49
C      10.61       8.23       8.14
C      10.88       9.61       7.98
C      12.20      10.00       7.66
C      13.24       9.04       7.77
C      12.98       7.75       8.29
C      11.65       7.30       8.34
C      11.31       5.86       8.65
C      12.52      11.41       7.21
C      19.33       9.67       9.74
C      19.36      10.00       8.37
C      18.24       9.69       7.56
C      17.26       8.83       8.06
C      17.28       8.42       9.41
C      18.29       8.90      10.27
C      18.27       8.54      11.75
C      18.08      10.30       6.18
C      24.61      16.73      18.66
C      23.23      16.95      18.88
C      22.41      15.81      19.14
C      22.94      14.50      18.92
C      24.32      14.32      18.67
C      25.16      15.45      18.76
C      26.66      15.28      18.89
C      13.37       8.87       0.28
C      20.55      22.25      17.49
C      20.28      20.91      17.86
C      18.95      20.45      17.77
C      17.91      21.40      17.67
C      18.18      22.79      17.65
C      19.52      23.21      17.46
C      19.85      24.68      17.24
C      18.63      18.98      17.76
C      18.96      15.62       0.23
C      26.58      23.01      18.13
C      25.51      22.62      17.30
C      24.50      21.81      17.82
C      24.48      21.45      19.18
C      17.91      14.84       0.76
C      17.90      14.47       2.23
C      25.47      23.04      15.84
N      16.80      16.97      13.61
N       9.72       3.68       3.82
N      21.64      18.87      18.51
N      14.56      13.89       0.17
N      16.07      12.15       0.40
N      16.50       6.17       9.88
N      14.95       7.90       9.73
N      14.37       5.77       8.96
N      14.50      16.81      14.12
N      15.90      14.95      14.38
N       7.39       3.59       4.19
N       8.62       1.61       4.01
O      23.76       8.52      16.90
O       7.25      10.04      13.13
O      14.14      24.99      17.52
O      21.63      18.29       4.35
O       6.77      15.73       3.20
O       6.92      11.82       7.79
O      23.13      14.22       7.08
O      21.33      11.06      15.17
O      15.11      22.51      16.34
O       6.03      16.52       0.72
O       7.88       9.19       6.76
O      22.80      10.54      10.32
O      14.10      23.96      14.85
O      20.71      16.40       5.28
O       7.20      10.74       5.20
O      22.23       7.81      14.83
O      21.87      13.38       4.86
O      22.45      12.95      15.88
O      24.10      10.76      15.79
O       9.53       9.00      18.37
O      28.83      22.59      17.43
O      27.94      24.65      16.99
O      25.26      13.38      16.68
O      24.63      11.90      18.27
O      23.30      12.28      13.23
O      16.18      23.22      18.91
O      16.88      24.90      17.57
O       9.63      12.13      14.25
O      10.42      10.67      15.86
O       7.27      18.47       0.95
O      23.41      16.48       5.98
O       8.84      14.78       8.61
O      21.60       9.42       7.78
O      20.77      11.41       7.02
O      22.65      18.92       7.05
O      23.96      17.73       8.53
O       7.80      17.77       3.46
O       8.93      10.13       9.27
O       9.65      11.75       7.87
O       8.93      18.70       5.99
O       9.66      16.55       6.19
O       7.59      12.49      10.49
F      17.71      22.44      12.56
F      11.27       5.50       5.03
F       9.97       5.58       8.44
F      17.34      18.74      17.33
F      20.14      19.97       7.57
F      11.13       5.65       2.77
F      18.04      19.27       7.97
F      19.64      17.78       7.49
F      10.94       2.13       1.26
F      18.46      19.05       0.77
F      11.76       7.41       3.98
F      17.09      23.51      14.43
F      18.49      21.76      14.55
F      16.33      19.14       1.48
F      10.21      18.06       2.11
F      10.48      16.32       3.52
F      12.21      17.05       2.29
F       6.55       3.31       6.91
F      14.77      20.65       7.06
F      12.96      20.53       8.38
F       4.71       7.52       2.79
F       5.38       9.55       3.44
F       4.76       8.03       4.98
F      21.79      16.75      14.33
F      22.85      14.80      14.10
F      22.22      15.52      16.15
F      16.89      14.02      11.54
F      16.26      12.48      13.07
F      17.94      12.05      11.64
F      12.64      13.70      11.07
F      14.32      15.00      11.74
F      12.18      15.66      12.04
F      12.94      10.82      17.14
F      11.35      12.21      17.93
F      13.52      12.70      18.21
F      12.24      18.20      13.28
F      13.70      17.95      11.57
F      12.35      19.73      11.63
F      20.20      20.94      11.57
F      19.43      22.10       9.81
F      13.99       4.24      11.45
F       9.51      21.09       7.15
F       9.61      19.54       8.79
F      10.03      21.69       9.25
F      11.61       5.59       9.97
F      12.04       5.02       7.83
F      12.33      12.29       8.26
F      11.69      11.76       6.15
F      13.83      11.53       6.78
F      19.24       9.24      12.45
F      18.51       7.19      11.90
F      17.04       8.86      12.30
F      16.85      10.00       5.63
F      19.06       9.80       5.34
F      18.20      11.67       6.25
F      19.63       9.28       0.27
F      10.77      15.19      17.63
F       2.92       7.06       0.34
F      20.19      16.20      18.44
F      13.22       9.89       1.20
F      12.92       7.70       0.88
F      21.20      24.87      16.99
F      19.52      25.41      18.37
F      12.56       6.26      16.15
F      18.77      18.47      19.03
F      19.49      18.32      16.89
F      18.94      15.08       2.92
F      18.04      13.10       2.37
F      16.71      14.87       2.81
F      26.55      22.49      15.16
F      25.53      24.42      15.74
F      24.31      22.63      15.21
