416

H      21.27      24.23      28.97
H      21.44      28.77      28.84
H      17.64      24.76      25.73
H      25.14      28.82      31.95
H      19.37      27.99      28.82
H      22.08      25.21      30.96
H      23.61       1.62      30.87
H      17.65      28.16      26.84
H      18.63      22.63      26.90
H      23.97      25.17      32.54
H       7.03       4.47      29.02
H       6.86      29.19      28.91
H      10.67       3.92      25.81
H       3.12      29.14      31.97
H       8.93       0.72      28.93
H       6.19       3.50      31.02
H       4.67      27.09      30.91
H      10.64       0.50      27.01
H       9.69       6.06      26.97
H       4.28       3.54      32.56
H       9.48      21.77      12.54
H      14.02      21.61      12.42
H      10.02      25.40       9.30
H      14.06      17.90      15.53
H      13.24      23.67      12.40
H      10.46      20.97      14.53
H      16.11      19.43      14.45
H      13.42      25.39      10.41
H       7.88      24.41      10.47
H      10.41      19.06      16.10
H      18.97       6.77      12.51
H      14.44       6.93      12.38
H      18.42       3.12       9.31
H      14.38      10.67      15.45
H      15.22       4.87      12.41
H      17.99       7.60      14.50
H      12.33       9.12      14.39
H      15.01       3.14      10.49
H      20.57       4.10      10.46
H      18.03       9.50      16.06
H       6.65      19.09      26.73
H       6.91      14.58      26.94
H       3.00      18.57      29.97
H      10.28      14.35      23.49
H       4.81      15.31      26.96
H       7.31      18.08      24.66
H       8.92      12.44      24.78
H       3.05      15.15      28.90
H       3.98      20.70      28.78
H       8.18      17.86      22.44
H      21.69       9.61      26.69
H      21.43      14.12      26.88
H      25.33      10.14      29.93
H      18.06      14.33      23.42
H      23.54      13.39      26.91
H      21.04      10.62      24.62
H      19.42      16.25      24.71
H      25.29      13.59      28.79
H      24.35       8.01      28.75
H      20.19      10.82      22.40
H      24.11      21.35      10.26
H      28.62      21.61      10.46
H      24.62      17.71      13.51
H      28.85      24.97       6.99
H      27.89      19.51      10.50
H      25.12      22.00       8.19
H       1.51      23.61       8.29
H      28.04      17.74      12.44
H      22.50      18.70      12.31
H      25.33      22.85       5.96
H       4.34       7.15      10.22
H      29.08       6.88      10.42
H       3.80      10.79      13.46
H      28.86       3.50       6.97
H       0.56       8.99      10.43
H       3.33       6.48       8.15
H      26.95       4.86       8.26
H       0.36      10.74      12.31
H       5.94       9.81      12.27
H       3.13       5.61       5.93
H      14.64       2.09      27.73
H      16.59      28.40      11.28
H       0.02      11.98      28.03
H       1.96      14.72      11.56
H      27.03      26.65       4.24
H       1.48       1.79       4.24
H      12.00      16.19      20.77
H      16.40      12.49      20.65
H      20.88       3.28      27.57
H       7.44      25.44      27.63
H      17.77      22.16      11.15
H      10.68       6.36      11.11
H       6.30      10.83      28.20
H      22.02      17.87      28.14
H       3.13      21.02      11.72
H      25.34       7.49      11.67
C      20.55      26.23      28.99
C      20.50      24.83      28.67
C      19.47      24.26      27.87
C      18.42      25.12      27.42
C      18.41      26.49      27.76
C      19.46      27.01      28.52
C      21.56      26.88      29.77
C      22.28      26.20      30.79
C      23.16      26.87      31.68
C      23.39      28.27      31.49
C      22.73      28.99      30.46
C      21.85      28.27      29.63
C      17.40      27.35      27.37
C      19.43      22.90      27.46
C      23.76      26.13      32.71
C      22.94       1.14      30.27
C       7.75       2.48      29.07
C       7.80       3.87      28.74
C       8.84       4.44      27.94
C       9.89       3.58      27.51
C       9.90       2.21      27.86
C       8.84       1.69      28.62
C       6.72       1.83      29.84
C       5.99       2.51      30.84
C       5.10       1.84      31.72
C       4.87       0.44      31.53
C       5.55      28.97      30.51
C       6.44       0.44      29.69
C      10.90       1.34      27.48
C       8.88       5.80      27.52
C       4.48       2.58      32.74
C       5.34      27.57      30.32
C      11.48      22.49      12.56
C      10.08      22.54      12.24
C       9.51      23.57      11.44
C      10.37      24.62      10.99
C      11.74      24.63      11.33
C      12.26      23.58      12.10
C      12.12      21.48      13.35
C      11.45      20.76      14.37
C      12.11      19.88      15.26
C      13.51      19.65      15.07
C      14.24      20.31      14.04
C      13.51      21.20      13.20
C      12.61      25.63      10.94
C       8.15      23.61      11.02
C      11.37      19.27      16.28
C      15.63      20.10      13.85
C      16.98       6.05      12.55
C      18.37       6.00      12.23
C      18.94       4.96      11.43
C      18.08       3.91      11.00
C      16.71       3.89      11.35
C      16.19       4.95      12.10
C      16.33       7.07      13.32
C      17.00       7.80      14.33
C      16.33       8.69      15.21
C      14.94       8.92      15.02
C      14.21       8.25      13.99
C      14.94       7.35      13.17
C      15.84       2.89      10.97
C      20.30       4.91      11.01
C      17.07       9.31      16.23
C      12.82       8.45      13.80
C       5.95      17.09      26.75
C       5.89      18.49      27.05
C       4.85      19.06      27.84
C       3.81      18.20      28.29
C       3.81      16.82      27.98
C       4.88      16.29      27.24
C       6.94      16.44      25.94
C       7.56      17.10      24.85
C       8.37      16.42      23.90
C       8.64      15.03      24.11
C       8.08      14.33      25.22
C       7.27      15.07      26.11
C       2.81      15.96      28.36
C       4.80      20.43      28.24
C       8.75      17.10      22.73
C       8.29      12.93      25.42
C      22.39      11.61      26.70
C      22.45      10.22      27.00
C      23.49       9.64      27.80
C      24.53      10.51      28.25
C      24.53      11.88      27.93
C      23.46      12.41      27.19
C      21.40      12.25      25.89
C      20.79      11.59      24.80
C      19.98      12.27      23.85
C      19.71      13.66      24.05
C      20.26      14.37      25.16
C      21.08      13.63      26.05
C      25.54      12.75      28.31
C      23.53       8.28      28.20
C      19.61      11.58      22.68
C      20.05      15.76      25.35
C      26.11      20.65      10.28
C      24.71      20.59      10.58
C      24.14      19.56      11.37
C      25.00      18.51      11.83
C      26.37      18.52      11.52
C      26.91      19.58      10.78
C      26.76      21.64       9.47
C      26.10      22.25       8.37
C      26.78      23.05       7.41
C      28.17      23.32       7.63
C      28.87      22.77       8.74
C      28.14      21.96       9.63
C      27.24      17.51      11.90
C      22.77      19.51      11.77
C      26.09      23.42       6.25
C       1.02      22.99       8.93
C       2.34       7.85      10.23
C       3.73       7.91      10.53
C       4.31       8.95      11.33
C       3.44       9.99      11.78
C       2.07       9.99      11.46
C       1.54       8.92      10.71
C       1.70       6.85       9.43
C       2.36       6.23       8.34
C       1.68       5.42       7.39
C       0.29       5.15       7.60
C      28.83       5.70       8.70
C       0.32       6.52       9.59
C       1.19      10.99      11.83
C       5.67       9.00      11.73
C       2.37       5.04       6.23
C      27.44       5.49       8.90
C      15.22      28.08      27.82
C      14.42       1.09      27.76
C      13.10       0.63      27.83
C      13.90      27.62      27.93
C      13.33      27.82      11.36
C      15.59      28.62      11.31
C      15.13       0.70      11.35
C      12.86      29.15      11.45
C       0.62      15.24      27.92
C      29.06      12.98      27.99
C      27.73      13.45      27.92
C      28.54      15.71      27.81
C      27.96      15.32      11.45
C       0.96      14.51      11.52
C       0.49      13.19      11.45
C      27.48      14.00      11.34
C      24.70      25.89       2.02
C      26.28      26.10       3.81
C      25.83      24.90       4.39
C      24.23      24.68       2.59
C       3.82       2.54       2.03
C       2.22       2.34       3.81
C       2.66       3.55       4.39
C       4.28       3.76       2.61
C      11.25      18.50      18.53
C      11.45      16.93      20.33
C      10.24      17.37      20.89
C      10.04      18.96      19.09
C      17.16      10.13      18.46
C      16.94      11.74      20.23
C      18.14      11.29      20.83
C      18.36       9.66      19.06
C      22.65       5.97      28.39
C      21.58       3.82      28.07
C      22.39       3.22      29.05
C      23.46       5.36      29.40
C       5.68      22.74      28.43
C       6.74      24.89      28.13
C       5.91      25.49      29.11
C       4.86      23.34      29.44
C      20.46      20.40      11.96
C      18.32      21.46      11.65
C      17.72      20.65      12.63
C      19.86      19.59      12.97
C       7.99       8.12      11.92
C      10.13       7.06      11.61
C      10.73       7.88      12.59
C       8.59       8.94      12.93
C       8.01       8.12      27.34
C       6.98      10.28      27.67
C       7.78      10.86      26.67
C       8.80       8.70      26.30
C      20.31      20.58      27.27
C      21.34      18.42      27.61
C      20.55      17.84      26.60
C      19.52      19.99      26.24
C       5.84      22.73      10.85
C       3.68      21.70      11.20
C       3.09      22.49      10.18
C       5.24      23.51       9.81
C      22.62       5.78      10.82
C      24.78       6.81      11.15
C      25.36       6.01      10.15
C      23.21       4.99       9.79
N      15.43       0.18      27.76
N      12.89      28.54      27.94
N      13.62      26.24      28.06
N      16.24      27.24      27.91
N      12.09       1.48      27.94
N      14.68      27.62      11.31
N      13.79       0.90      11.44
N      11.49       0.18      11.55
N      12.50      26.80      11.46
N      15.98       1.70      11.45
N       0.82      13.89      27.99
N      27.54      14.79      27.82
N      28.27      17.09      27.69
N       1.64      16.07      27.83
N      26.72      12.60      27.83
N       0.06      15.52      11.52
N      28.40      12.99      11.34
N      26.11      13.73      11.21
N      27.13      16.35      11.36
N       1.34      12.18      11.36
N      25.70      26.55       2.67
N      24.82      24.25       3.75
N      23.16      23.98       2.02
N      24.18      26.47       0.93
N      26.39      24.45       5.52
N       2.82       1.88       2.68
N       3.68       4.20       3.75
N       5.36       4.47       2.04
N       4.36       1.96       0.96
N       2.09       4.00       5.51
N      11.91      17.51      19.19
N       9.59      18.38      20.24
N       9.33      20.03      18.50
N      11.84      19.02      17.45
N       9.78      16.82      22.02
N      16.50      11.14      19.10
N      18.79      10.27      20.20
N      19.06       8.58      18.51
N      16.58       9.60      17.39
N      18.59      11.86      21.95
N      21.74       5.15      27.79
N      23.28       4.04      29.68
N      24.39       6.08      30.18
N      22.67       7.26      27.94
N      22.28       1.90      29.35
N       6.59      23.57      27.84
N       5.02      24.67      29.72
N       3.92      22.62      30.21
N       5.66      21.45      27.98
N       6.01      26.81      29.41
N      19.64      21.31      11.36
N      18.53      19.76      13.25
N      20.58      18.66      13.75
N      21.76      20.38      11.51
N      16.39      20.76      12.93
N       8.81       7.21      11.33
N       9.91       8.78      13.20
N       7.87       9.88      13.69
N       6.69       8.13      11.47
N      12.06       7.78      12.88
N       7.13       8.95      27.96
N       8.64      10.03      26.03
N       9.70       7.97      25.51
N       8.03       6.82      27.80
N       7.67      12.19      26.37
N      21.19      19.75      27.89
N      19.69      18.66      25.96
N      18.62      20.72      25.44
N      20.29      21.88      27.73
N      20.66      16.51      26.31
N       5.00      21.85      11.48
N       3.92      23.35       9.54
N       5.97      24.41       9.01
N       7.13      22.76      11.30
N       1.77      22.37       9.89
N      23.45       6.67      11.43
N      24.54       5.14       9.51
N      22.47       4.08       9.00
N      21.33       5.77      11.28
N      26.69       6.12       9.84
O      17.38      24.65      26.67
O      24.24      28.93      32.33
O      10.93       4.04      26.75
O       4.01      29.03      32.36
O       9.91      25.66      10.24
O      14.17      18.80      15.91
O      18.54       2.86      10.25
O      14.27       9.78      15.84
O       2.75      18.67      29.02
O       9.35      14.34      23.18
O      25.59      10.04      28.99
O      19.00      14.35      23.12
O      24.53      17.46      12.56
O      28.86      24.03       6.69
O       3.91      11.05      12.51
O      28.85       4.43       6.66
O      13.02      26.02      29.14
O      12.88      25.86      27.12
O      11.26       0.80      12.62
O      11.12       0.90      10.60
O      27.67      17.31      26.61
O      27.54      17.47      28.63
O      25.89      13.12      10.13
O      25.72      13.00      12.15
O      22.21      23.90       2.84
O      23.51      22.81       1.73
O       6.30       4.55       2.87
O       4.99       5.63       1.74
O       9.23      20.98      19.31
O       8.17      19.66      18.20
O      19.13       7.64      19.34
O      20.23       8.93      18.22
O      25.54       5.59      30.04
O      24.08       6.04      31.39
O       2.77      23.10      30.07
O       4.22      22.65      31.43
O      20.10      17.51      13.62
O      20.55      18.97      14.97
O       8.35      11.03      13.55
O       7.90       9.58      14.91
O      10.87       8.44      25.62
O       9.37       8.01      24.30
O      17.46      20.25      25.54
O      18.96      20.69      24.23
O       5.50      25.57       9.10
O       5.94      24.07       7.80
O      22.94       2.92       9.11
O      22.51       4.40       7.79
