13

Ni      -0.50      -0.44      23.30
N       0.04      -2.25      23.56
C       0.43      -3.15      22.62
C       0.02      -1.76      20.70
C      -0.45       0.29      20.43
C      -1.07       2.09      21.89
N      -1.00       1.39      23.05
C      -1.19       2.34      24.00
C      -1.08       0.86      25.88
C      -0.79      -1.23      26.13
N      -0.79      -0.26      25.18
C       0.19      -2.94      24.73
N      -0.28      -0.64      21.41
