13

C      -2.25      32.54      37.30
C      -4.09      33.28      35.96
C      -4.42      33.06      33.85
Ni      -2.62      31.04      34.82
C      -3.26      31.89      32.16
C      -2.52      29.88      32.14
C      -1.87      28.38      33.91
N      -2.98      30.85      32.97
N      -1.71      29.37      34.83
N      -2.09      31.38      36.60
N      -3.70      32.57      34.88
C      -1.29      28.73      35.95
C      -1.14      30.71      37.26
