16

C      24.87      14.36      13.25
C      23.82      13.75      14.11
O      19.80      11.43      15.96
C      22.72      13.12      13.53
O      20.97      12.11      17.86
C      23.92      13.81      15.49
C      20.80      12.01      16.57
C      21.85      12.61      15.72
H      22.65      13.08      12.61
H      24.65      14.23      15.88
C      21.74      12.55      14.33
C      22.94      13.25      16.30
O      24.70      14.26      11.96
H      21.01      12.13      13.94
O      25.86      14.93      13.87
H      23.02      13.29      17.22
