16

O      10.30       7.72       5.46
C       9.13       8.20       5.80
C       7.93      11.11       7.86
C       9.13       9.41       6.65
C      10.33      11.11       7.86
C       7.93       9.98       7.06
H       7.13      11.49       8.13
H      11.14      11.49       8.13
C      10.33       9.98       7.06
H       7.13       9.60       6.79
H      11.14       9.60       6.79
O       7.97      13.37       9.46
O      10.30      13.37       9.46
O       7.97       7.72       5.46
C       9.13      12.89       9.12
C       9.13      11.68       8.26
