22

O       0.61       2.44       6.33
O       1.43       0.31       6.49
O       0.88       5.14      10.72
O       2.30       4.21      12.25
H       0.78       3.84       8.48
H       2.13      -0.87       8.20
H       3.01      -2.41       9.74
H       3.60      -2.07      11.98
H       3.50      -0.11      13.24
H       2.72       2.03      12.61
C       1.14       1.46       6.98
C       1.44       1.73       8.39
C       1.22       2.98       8.98
C       1.67       2.98      10.32
C       2.02       0.86       9.38
C       2.86      -1.39      10.12
C       2.34      -0.48       9.20
C       3.15      -0.02      12.22
C       2.69       1.25      11.84
C       2.17       1.67      10.61
C       1.62       4.18      11.15
C       3.21      -1.19      11.45
