22

O       0.07       4.11       3.57
O       1.67       3.32       2.18
O       0.61       7.87      -2.32
O       1.82       5.93      -2.39
C       0.76       4.17       2.48
C       0.49       5.26       1.53
H       1.91       4.69      -0.06
C       1.13       5.35       0.28
H      -0.97       8.54      -1.03
H      -2.71       9.62       0.13
H      -3.57       9.14       2.26
C      -1.20       8.15      -0.04
C      -2.24       8.78       0.65
C      -2.75       8.49       1.92
C      -2.37       7.49       2.81
H      -2.93       7.45       3.74
C      -1.37       6.52       2.67
C      -0.41       7.06       0.34
C      -0.49       6.30       1.61
C       1.04       6.77      -1.81
H      -1.25       5.82       3.50
C       0.61       6.43      -0.45
