22

H       6.00       3.88      13.74
H       7.53       8.10      11.79
H       9.58       8.84      10.89
H      11.60       7.70      10.73
H      12.10       5.50      11.36
H      10.69       3.87      12.30
C       8.39       2.50      13.27
C       8.09       3.91      13.04
C       6.82       4.44      13.31
C       6.75       5.77      12.90
C       8.02       6.14      12.35
C       8.89       4.95      12.46
C       8.35       7.39      11.81
C       9.57       7.82      11.27
C      10.78       7.13      11.17
O       7.44       1.81      13.81
O       9.54       2.03      12.91
C      10.24       4.85      12.11
C       5.49       6.51      12.96
O       4.54       5.96      13.62
O       5.41       7.65      12.37
C      11.07       5.82      11.54
