72

C       1.28       9.52       6.64
C       1.28      11.13       4.91
C       1.28      11.83       7.17
C       1.19      11.50       3.48
C       1.19      12.88       8.20
C       1.19       8.10       7.03
C       8.80       1.36      12.06
C       8.80      -0.25      13.79
C       8.80      -0.95      11.53
C       8.89      -0.62      15.22
C       8.89      -2.00      10.49
C       8.89       2.78      11.66
C       8.79      -0.47      18.35
C       9.34      10.05       0.96
C       0.59      10.58       1.30
C       1.29      11.35       0.35
C       0.73       0.83      17.74
C       9.49       0.30      17.40
C       8.79       5.42       9.97
C       9.35       6.64       9.55
C       0.59       6.67       8.93
C       1.29       5.46       8.73
C       0.74       4.24       9.15
C       9.49       4.21       9.77
C       8.79      -4.79       9.06
C       9.35      15.79       8.21
C       0.59      15.23       8.49
C       1.29      15.67       9.64
C       0.73      -4.91      10.49
C       9.49      -4.35      10.20
H       2.06      12.10       3.21
H       0.30      12.12       3.36
H       2.06      12.81       8.86
H       0.30      12.67       8.80
H       2.07       7.57       6.64
H       0.30       7.69       6.55
H       9.78      -1.24      15.33
H       8.01      -1.22      15.48
H       9.78      -1.79       9.90
H       8.01      -1.93       9.84
H       9.78       3.19      12.14
H       8.02       3.31      12.05
H       2.21      11.74       0.58
H       8.82       9.49       1.63
H       7.87      -0.86      18.12
H       1.26       1.39      17.06
H       2.01       9.85       2.51
H       8.07       1.03      16.19
H       2.21       5.47       8.28
H       8.82       7.51       9.70
H       7.87       5.41      10.42
H       1.26       3.37       9.00
H       2.01       8.09       8.95
H       8.07       2.79       9.75
H       2.21      15.27       9.86
H       8.82      15.48       7.38
H       7.87      -4.39       8.84
H       1.26      -4.60      11.31
H       2.01      14.54       7.26
H       8.07      -3.66      11.44
N       1.27       9.84       5.32
N       1.27      12.12       5.84
N       1.27      10.52       7.55
N       8.81       1.04      13.38
N       8.81      -1.24      12.85
N       8.81       0.36      11.14
N       1.09      10.32       2.59
N       8.98       0.56      16.11
N       1.10       7.92       8.51
N       8.99       2.96      10.19
N       1.09      14.24       7.62
N       8.98      -3.36      11.07
