27

N      14.24       0.87       1.31
N      13.81       2.12       1.24
Cd      16.01       0.00       0.00
N      17.68       4.03       0.99
N      14.36       2.86      -3.02
Cd      17.38      -3.87       0.00
Cd      14.64       3.87       0.00
N      14.34      -4.03      -0.99
N      12.74       2.29       2.03
N      18.21      -2.12      -1.24
N      18.55      -0.18      -2.16
N      15.12       1.18      -1.85
N      17.29      -2.45       1.80
N      17.66      -2.86       3.02
N      18.53       1.97       0.94
N      15.27      -3.17      -0.57
N      19.28      -2.29      -2.03
N      17.26       1.94       0.54
N      13.48       0.18       2.16
N      17.01      -0.72       3.10
N      16.90      -1.18       1.85
N      13.49      -1.97      -0.94
N      14.74       2.45      -1.80
N      15.01       0.72      -3.10
N      14.76      -1.94      -0.54
N      17.78      -0.87      -1.31
N      16.75       3.17       0.57
