27

Cd      12.04      -5.61      16.43
N      13.19      -9.35      11.84
Cd       9.30      -9.48       9.72
Cd      10.67      -7.55      13.07
N       9.93      -5.47      15.53
N      12.34     -10.42      10.08
N       9.40      -7.21      10.05
N       8.14      -9.50      13.99
N      13.94      -4.65      14.04
N       9.03      -6.36       9.08
N      11.67      -9.87      15.25
N       9.01      -4.67      16.07
N      12.88      -5.42      14.29
N       9.79      -6.54      11.12
N       7.41     -10.45      12.11
N      12.32      -8.73      17.06
N       9.43      -6.11      14.48
N       9.67      -5.23      10.90
N       8.47      -9.68      11.85
N      11.95      -7.88      16.10
N      13.21      -5.59      12.15
N       8.90      -9.12      12.97
N      11.56      -8.56      15.02
N      11.92      -8.99      11.66
N      12.45      -5.98      13.17
N       8.15      -5.75      14.31
N      11.42      -9.62      10.62
