18

O       8.97       1.90      17.03
O       7.66       0.85      15.41
H       6.88       6.64      13.86
H       7.03       2.28      13.75
H       8.59       4.41      17.19
C       8.19       1.91      16.01
C       7.74       5.66      15.59
C       7.11       5.68      14.31
C       6.87       4.48      13.59
C       7.23       3.27      14.19
C       7.81       3.26      15.48
C       8.10       4.44      16.19
C       7.99       6.95      16.33
C       6.11       4.43      12.27
O       7.61       8.02      15.71
O       8.50       6.82      17.54
O       5.36       5.42      11.99
O       6.22       3.35      11.56
