20

O      10.89      10.33       4.64
O       9.80      11.77       3.27
O      10.77      12.83       6.07
O      12.83      13.26       6.96
H      14.29      14.20       5.20
O      15.91      15.01       2.00
H      12.34      11.35       1.60
O      14.14      12.15      -0.15
O      16.04      12.26       1.10
O      16.72      13.93       3.82
C      15.82      14.18       2.99
C      12.03      13.01       6.00
C      13.85      13.59       4.41
C      12.65      12.93       4.64
C      12.09      12.11       3.62
C      10.82      11.35       3.86
C      12.75      11.98       2.38
C      14.52      13.45       3.18
C      13.98      12.61       2.17
C      14.78      12.33       0.93
