20

H       2.94      11.58       3.85
H       7.39      13.79       4.07
O       7.63      10.52       5.52
O       7.82      12.59       6.46
O       5.59      14.89       1.06
O       6.52      15.86       2.88
O       3.75       9.54       5.08
O       2.81      14.80       2.09
O       2.55      12.62       1.46
O       4.92      10.40       6.82
C       4.88      11.58       4.78
C       4.52      10.41       5.64
C       5.45      13.79       3.14
C       3.90      12.08       3.90
C       6.42      13.30       4.03
C       6.15      12.22       4.85
C       5.85      14.94       2.28
C       7.28      11.73       5.71
C       4.18      13.14       3.05
C       3.10      13.57       2.10
