20

Cu       4.40      -0.80       5.41
Cu       4.45      -0.84       2.76
I       5.67       1.22       6.43
I       5.93       1.04       1.74
Cu       4.50       1.58       4.05
Cu       6.66       0.05       4.12
I       2.29       0.23       3.93
I       6.12      -2.48       4.24
C       2.21      -2.63       6.14
N       3.31      -2.05       6.65
C       3.39      -2.08       7.99
N       3.64      -2.28       1.52
C       3.46      -3.51       2.03
C       3.58      -2.22       0.18
N       4.44       3.65       3.88
N       8.63       0.68       4.29
C       5.50       4.26       3.32
C       3.34       4.40       3.97
C       8.85       1.89       4.85
C       9.71      -0.11       4.20
