20

C       6.92      -8.17      14.51
C       5.54      -2.80      17.13
Cu       7.84      -6.72      19.74
Cu      10.00      -5.90      18.45
C       6.72      -1.48      18.53
I       5.63      -6.15      18.50
I       9.46      -4.52      16.31
Cu       7.78      -6.62      17.00
Cu       7.73      -4.35      18.35
I       9.27      -8.44      18.11
I       9.01      -4.48      20.61
C       8.84      -8.69      21.69
C       6.67      -8.20      22.14
C      12.19      -6.18      20.40
C      13.04      -5.74      18.35
N       7.77      -7.89      21.44
N      11.96      -6.06      19.08
N       6.97      -6.98      15.13
N       6.64      -2.65      17.89
C       6.79      -5.92      14.31
