20

Cu      -3.34       0.05      12.22
Cu      -5.51       1.58      12.29
Cu      -5.56      -0.84      13.58
Cu      -5.61      -0.80      10.93
I      -3.89      -2.48      12.10
I      -7.72       0.23      12.41
I      -4.08       1.04      14.60
I      -4.34       1.22       9.91
N      -1.38       0.68      12.05
C      -1.16       1.89      11.49
N      -5.57       3.65      12.46
C      -0.30      -0.11      12.14
C      -4.51       4.26      13.02
C      -6.67       4.40      12.37
N      -6.37      -2.28      14.82
N      -6.70      -2.05       9.69
C      -6.55      -3.51      14.31
C      -6.43      -2.22      16.16
C      -7.80      -2.63      10.20
C      -6.62      -2.08       8.35
