11

O       4.05      20.27       5.56
C       6.75      22.45       3.60
Ni       4.07      21.90       4.65
C       1.33      22.44       3.60
O       4.06      23.51       3.69
C       3.81      19.19       4.81
N       2.04      21.84       4.58
N       6.04      21.84       4.57
C       6.75      21.26       5.56
C       1.33      21.27       5.56
C       3.80      24.58       4.44
