10

C       0.89       2.38      20.42
C       0.85       0.37      19.29
H       1.50       3.17      20.86
H       1.40      -0.44      18.82
C      -0.50       2.40      20.44
C      -0.55       0.40      19.30
H      -1.06       3.22      20.90
H      -1.15      -0.38      18.83
N       1.56       1.35      19.87
N      -1.21       1.40      19.89
