10

C       6.91       4.65       9.83
C       6.90       6.65       8.68
H       6.33       3.85      10.29
H       6.32       7.44       8.20
C       8.30       4.64       9.81
C       8.29       6.66       8.68
H       8.89       3.83      10.24
H       8.87       7.46       8.24
N       6.22       5.66       9.28
N       8.98       5.66       9.26
