18

C       3.76      10.50      15.81
C       3.40       9.76      16.95
C       3.49      10.28      18.23
C       3.88      11.62      18.40
C       4.17      12.40      17.28
C       4.14      11.83      16.00
C       3.85       9.87      14.44
C       3.97      12.17      19.79
O       3.24       7.51      17.53
O       4.14       8.63      14.37
O       3.68      10.61      13.43
O       1.83       8.33      16.05
N       2.79       8.42      16.82
O       4.13      13.42      19.97
O       3.89      11.35      20.77
H       3.24       9.67      19.10
H       4.43      13.45      17.39
H       4.39      12.43      15.12
