21

C      13.23      15.20      18.96
C      11.92      15.82      19.49
C      14.19      14.68      20.03
C      14.98      13.53      19.40
C      15.01      15.96      20.35
C      16.34      15.66      21.06
C      15.07      16.72      19.01
C      14.85      18.23      19.15
H      12.91      14.41      18.26
H      13.63      14.31      20.90
H      14.41      16.53      21.08
H      16.03      16.54      18.52
O      14.02      16.14      18.18
O      11.51      16.82      18.79
O      11.32      15.30      20.46
O      14.55      12.36      19.61
O      15.97      13.88      18.67
O      16.17      15.03      22.16
O      17.43      16.02      20.54
O      15.75      18.93      19.67
O      13.72      18.67      18.73
