21

C      15.92       1.78       2.85
C      15.30       1.26       1.54
C      16.43       0.72       3.81
C      17.58       1.34       4.61
C      15.15       0.39       4.64
C      15.45      -0.31       5.97
C      14.40       1.73       4.70
C      12.89       1.59       4.47
O      14.98       2.56       3.64
O      14.30       1.95       1.14
O      15.82       0.29       0.94
O      18.76       1.14       4.18
O      17.24       2.07       5.60
O      16.08      -1.42       5.79
O      15.10       0.20       7.06
O      12.19       1.07       5.38
O      12.45       2.01       3.35
H      16.70       2.49       2.53
H      16.81      -0.15       3.26
H      14.58      -0.34       4.04
H      14.57       2.23       5.66
