21

H      16.70       7.88      12.91
H      16.81      10.52      13.63
H      14.58      10.71      14.41
H      14.57       8.14      16.03
O      14.98       7.81      14.02
O      14.30       8.42      11.51
O      15.82      10.08      11.32
O      18.76       9.23      14.55
O      17.24       8.30      15.97
O      16.08      11.79      16.17
O      15.10      10.17      17.43
O      12.19       9.30      15.75
O      12.45       8.36      13.72
C      15.92       8.59      13.23
C      15.30       9.12      11.92
C      16.43       9.66      14.19
C      17.58       9.03      14.98
C      15.15       9.98      15.01
C      15.45      10.69      16.34
C      14.40       8.64      15.07
C      12.89       8.78      14.85
