21

H      14.41      12.86       2.53
H      14.31      10.22       3.26
H      16.53      10.04       4.04
H      16.54      12.60       5.66
O      16.14      12.94       3.64
O      16.82      12.33       1.14
O      15.30      10.66       0.94
O      12.36      11.51       4.18
O      13.88      12.44       5.60
O      15.03       8.95       5.79
O      16.02      10.57       7.06
O      18.93      11.44       5.38
O      18.67      12.39       3.35
C      15.20      12.16       2.85
C      15.82      11.63       1.54
C      14.68      11.09       3.81
C      13.53      11.71       4.61
C      15.96      10.76       4.64
C      15.66      10.06       5.97
C      16.72      12.10       4.70
C      18.23      11.96       4.47
