21

O      12.94       6.73       5.77
O      12.33       9.24       6.45
O      10.66       9.43       4.93
O      11.51       6.19       1.99
O      12.44       4.77       3.50
O       8.95       4.58       4.66
O      10.57       3.31       5.64
O      11.44       4.99       8.56
O      12.39       7.03       8.29
C      12.16       7.52       4.83
C      11.63       8.83       5.45
C      11.09       6.56       4.31
C      11.71       5.77       3.16
C      10.76       5.74       5.59
C      10.06       4.40       5.29
C      12.10       5.67       6.35
C      11.96       5.90       7.86
H      12.86       7.84       4.04
H      10.22       7.11       3.94
H      10.04       6.33       6.16
H      12.60       4.71       6.17
