21

H      12.86       2.53      14.41
H      10.22       3.26      14.31
H      10.04       4.04      16.53
H      12.60       5.66      16.54
O      12.94       3.64      16.14
O      12.33       1.14      16.82
O      10.66       0.94      15.30
O      11.51       4.18      12.36
O      12.44       5.60      13.88
O       8.95       5.79      15.03
O      10.57       7.06      16.02
O      11.44       5.38      18.93
O      12.39       3.35      18.67
C      12.16       2.85      15.20
C      11.63       1.54      15.82
C      11.09       3.81      14.68
C      11.71       4.61      13.53
C      10.76       4.64      15.96
C      10.06       5.97      15.66
C      12.10       4.70      16.72
C      11.96       4.47      18.23
