21

C      17.89       5.55       8.59
C      19.20       4.92       9.12
C      16.93       6.06       9.66
C      16.14       7.21       9.03
C      16.11       4.78       9.98
C      14.78       5.08      10.69
C      16.05       4.02       8.64
C      16.27       2.51       8.78
H      18.21       6.33       7.88
H      17.48       6.43      10.52
H      16.71       4.21      10.71
H      15.09       4.20       8.14
O      17.10       4.61       7.81
O      19.61       3.93       8.42
O      19.80       5.45      10.08
O      16.57       8.38       9.23
O      15.15       6.87       8.30
O      14.95       5.71      11.79
O      13.68       4.73      10.17
O      15.36       1.82       9.30
O      17.40       2.08       8.36
