28

H       9.17      12.79       5.65
H       9.99      10.60       4.80
H      14.04      11.77       5.67
H      13.21      13.96       6.51
H      11.08       9.41       3.24
H      13.19       5.83       4.29
H      14.06       9.51       6.36
C      10.62      14.71       6.84
C      11.14      13.49       6.18
C      10.24      12.56       5.64
C      10.70      11.34       5.16
C      12.07      11.01       5.21
C      12.98      11.99       5.67
C      12.51      13.21       6.14
C      12.50       9.64       4.86
C      11.82       8.92       3.86
C      12.08       7.56       3.64
C      13.02       6.89       4.43
C      13.74       7.61       5.38
C      13.50       8.98       5.59
C      14.73       6.89       6.23
C      11.33       6.86       2.55
O       9.38      15.02       6.73
O      11.42      15.46       7.53
O      15.73       7.53       6.73
O      14.56       5.65       6.45
O      11.52       5.61       2.35
O      10.52       7.58       1.87
