232

C      10.36       5.79      41.18
C       9.84       4.64      40.51
C       9.87       4.55      39.09
C      10.39       5.64      38.37
C      10.89       6.79      39.01
C      10.92       6.85      40.42
C       9.31       3.60      41.30
C      11.55       7.92      41.10
C      10.36       5.87      42.62
C       9.72       4.86      43.38
C       9.66       4.98      44.80
C      10.45       5.97      45.44
C      11.11       6.98      44.71
C      11.02       6.95      43.29
C       9.25       3.71      42.70
C      11.62       7.95      42.49
C      10.22      14.01      29.45
C       9.68      15.14      30.15
C       9.68      15.17      31.57
C      10.16      14.05      32.26
C      10.71      12.94      31.60
C      10.77      12.92      30.19
C       9.18      16.21      29.38
C      11.39      11.87      29.49
C      10.24      13.97      28.02
C       9.62      15.01      27.27
C       9.59      14.93      25.84
C      10.37      13.95      25.19
C      11.02      12.92      25.91
C      10.90      12.91      27.33
C       9.15      16.14      27.98
C      11.48      11.87      28.10
C       2.28      13.33       5.83
C       2.86      14.48       6.46
C       2.86      14.59       7.88
C       2.34      13.53       8.64
C       1.79      12.38       8.03
C       1.71      12.29       6.62
C       3.41      15.48       5.64
C       1.03      11.24       5.98
C       2.24      13.23       4.40
C       2.90      14.20       3.60
C       2.91      14.05       2.18
C       2.05      13.10       1.59
C       1.36      12.13       2.36
C       1.52      12.16       3.77
C       3.44      15.34       4.25
C       0.91      11.19       4.59
C       2.46       5.03      17.54
C       3.03       3.92      16.84
C       3.07       3.91      15.42
C       2.61       5.05      14.73
C       2.04       6.14      15.40
C       1.92       6.13      16.81
C       3.54       2.85      17.61
C       1.25       7.15      17.51
C       2.37       5.03      18.98
C       2.99       3.99      19.73
C       2.96       4.04      21.15
C       2.10       4.97      21.79
C       1.45       6.00      21.07
C       1.65       6.06      19.66
C       3.52       2.89      19.01
C       1.10       7.11      18.89
C      12.10       8.56      35.53
C      11.81       9.44      36.62
C      11.60      10.80      36.31
C      11.77      10.35      34.00
C      12.59       6.34      34.67
C      11.62      10.76      32.67
C      11.64       9.01      37.95
C       8.83      17.02      35.19
C       8.91      17.89      34.06
C       8.97       2.21      34.36
C       8.99       1.81      36.71
C       7.51      15.09      35.46
C       9.10       2.27      38.04
C       8.99      17.45      32.72
C       0.68      10.60      11.56
C       0.92       9.74      10.45
C       1.11       8.37      10.73
C       1.01       8.79      13.06
C       0.00      12.76      12.45
C       1.16       8.35      14.37
C       1.06      10.18       9.12
C       3.97       2.10      11.78
C       3.87       1.23      12.90
C       3.80      16.91      12.59
C       3.80      17.33      10.24
C       5.24       4.06      11.42
C       3.69      16.88       8.91
C       3.79       1.66      14.25
C      13.27      10.52      45.92
C      13.00       9.48      46.85
C      13.57       7.74       0.93
C      14.66       9.77       0.29
C      11.48      11.32      44.65
C       0.10      10.88       0.56
C      12.22       8.33      46.56
C      13.21       9.39      24.68
C      12.97      10.46      23.77
C      13.60      10.30      22.51
C      14.66       8.26      23.15
C      11.37       8.56      25.86
C       0.13       7.17      22.89
C      12.18      11.60      24.05
C       7.60      17.73      23.21
C       6.99      17.22      24.38
C       5.68      17.70      24.66
C       5.64       1.92      22.67
C       9.83       1.36      23.37
C       4.98       2.76      21.76
C       7.62      16.33      25.28
C       7.63       0.25       0.17
C       7.03       2.72      46.22
C       5.72       2.27      45.91
C       5.65      16.07       0.66
C       9.84      18.51      47.19
C       4.96      15.24       1.56
C       7.67       3.62      45.35
H      10.39       5.60      37.34
H      10.43       6.03      46.46
H       8.93       2.89      43.21
H       8.95       2.74      40.87
H      12.13       8.73      42.92
H      12.05       8.65      40.59
H      10.16      14.06      33.29
H      10.37      13.91      24.17
H       8.84      16.98      27.49
H       8.81      17.05      29.83
H      11.98      11.11      27.66
H      11.86      11.11      29.97
H       2.36      13.59       9.66
H       2.03      13.02       0.56
H       3.79      16.13       3.71
H       3.81      16.33       6.05
H       0.37      10.42       4.19
H       0.51      10.54       6.51
H       2.64       5.06      13.71
H       2.05       4.98      22.81
H       3.85       2.06      19.50
H       3.94       2.03      17.15
H       0.57       7.86      19.34
H       0.78       7.91      17.02
H      11.37      11.49      37.04
H      11.67       6.27      34.09
H      12.83       5.36      35.07
H      13.41       6.66      34.02
H      11.76      10.09      31.91
H      11.47       9.69      38.69
H       9.05       2.91      33.61
H       7.33      15.24      36.53
H       7.54      14.02      35.27
H       6.68      15.52      34.89
H       9.03       1.61      38.81
H       8.99      18.13      31.96
H       1.30       7.69       9.99
H       0.79      12.83      13.20
H      15.19      13.77      12.08
H      14.47      12.38      12.92
H       1.06       9.01      15.14
H       1.22       9.51       8.37
H       3.72      16.21      13.33
H       5.32       3.95      10.34
H       5.22       5.12      11.66
H       6.13       3.63      11.90
H       3.77       0.48       8.14
H       3.77       0.96      15.00
H      13.42       7.05       1.67
H      10.73      10.87      45.30
H      11.10      11.30      43.63
H      11.64      12.36      44.94
H       0.30      13.45      47.00
H      12.03       5.74       0.11
H      13.48      11.01      21.78
H      10.64       9.01      25.18
H      10.94       8.55      26.86
H      11.55       7.52      25.56
H       0.30       6.49      23.63
H      12.01      12.28      23.31
H       5.18      17.39      25.50
H       9.63       2.36      22.96
H      10.83       1.06      23.06
H       9.81       1.41      24.46
H       5.48       3.00      20.91
H       7.13      16.09      26.14
H       5.22       2.60      45.08
H       9.63      15.58       0.36
H      10.85      16.86       0.30
H       9.82      18.49      46.10
H       5.45      14.99       2.43
H       7.19       3.88      44.48
N      11.27       7.74      38.13
N       9.52       3.53      38.27
N      11.82       7.98      45.31
N       8.85       4.25      45.61
N      11.12      11.99      32.46
N       9.36      16.18      32.42
N      11.74      11.93      25.30
N       8.79      15.68      25.03
N       1.44      11.45       8.94
N       3.24      15.63       8.67
N       0.57      11.16       1.80
N       3.74      14.71       1.32
N       1.65       7.11      14.55
N       3.41       2.92      14.56
N       0.64       6.93      21.66
N       3.77       3.33      21.99
N      11.55      11.20      35.03
N      12.06       9.06      34.27
N       9.04       2.65      35.64
N       8.88      17.54      36.45
N       1.18       7.94      12.01
N       0.74      10.09      12.81
N       3.74      16.48      11.30
N       3.92       1.60      10.51
N      14.37       8.81       1.21
N      14.09      11.56      46.27
N      14.41       9.24      22.24
N      14.04       8.37      24.35
N       5.05       1.48      23.81
N       6.90       1.51      22.40
N       5.07      18.47      46.74
N       6.91      16.46       0.96
O      12.44       7.25      35.77
O       8.77      15.66      35.07
O       0.40      11.94      11.35
O       4.03       3.46      11.92
O      12.71      10.57      44.68
O      12.59       9.31      25.90
O       8.89      17.45      22.86
O       8.92       0.50       0.52
