13

C      -7.62       0.74      25.14
Zn      -6.09       0.04      27.61
C      -4.65      -2.70      27.28
C      -5.65      -2.46      29.20
C      -4.57       2.63      27.60
C      -8.21       1.40      29.36
C      -5.55       0.32      24.60
C      -8.99      -0.44      28.47
C      -3.83       1.38      29.23
N      -6.45       0.34      25.67
N      -7.86       0.39      28.53
N      -4.75       1.42      28.18
N      -5.45      -1.85      27.96
