13

C       4.46      -2.58      12.69
C       5.33      -6.48      11.11
C       3.06      -2.59      14.36
C       0.00      -4.88      12.78
C       4.12      -5.12       9.90
C       3.12      -7.63      14.73
C       0.71      -6.43      11.43
Zn       3.09      -5.23      12.79
C       4.58      -6.09      15.25
N       3.52      -3.35      13.29
N       4.28      -5.64      11.19
N       3.62      -6.38      14.34
N       1.14      -5.43      12.30
