13

N      -2.92      -5.77      25.67
N      -3.58      -7.02      28.53
N      -1.13      -4.85      28.18
N      -4.31      -3.82      27.96
C      -2.49      -4.99      24.60
C      -3.16      -6.99      25.14
C      -4.86      -7.58      28.47
C      -0.71      -4.03      29.23
C      -4.95      -3.69      29.20
C      -4.65      -2.70      27.28
Zn      -3.00      -5.31      27.61
C       0.00      -5.30      27.60
C      -2.88      -7.83      29.36
