13

C      -4.20      16.62      14.16
C      -0.70      15.10      12.58
C      -2.97      12.04      11.69
C      -2.36      12.91      17.04
C      -5.03      12.53      12.21
N      -1.12      14.32      13.66
N      -2.73      12.53      15.75
N      -3.70      12.72      12.60
N      -4.11      15.35      14.64
Zn      -2.97      13.76      14.15
C      -5.19      15.22      15.51
C       0.01      13.90      14.25
C      -2.94      11.19      15.84
