13

N      -6.45      -5.04      18.06
N      -7.87      -7.72      17.06
N      -4.76      -7.04      16.20
N      -5.46      -7.93      19.35
C      -5.56      -4.04      18.43
C      -8.99      -7.94      17.85
C      -3.84      -8.04      15.89
C      -4.65      -7.57      20.38
C      -5.66      -9.30      19.52
Zn      -6.09      -6.96      17.70
C      -4.58      -6.09      15.25
C      -8.22      -8.16      15.83
C      -7.63      -4.41      17.86
