13

C      -8.88       0.69      15.89
C     -10.87      -0.26      19.52
C     -11.17      -3.04      15.83
C      -8.87      -0.26      20.38
C      -7.56      -0.93      15.25
C      -7.63      -4.41      17.86
N      -7.58      -3.08      18.06
N     -10.61      -2.96      17.06
N      -8.47      -0.61      16.20
N      -9.59      -0.77      19.35
Zn      -9.07      -1.80      17.70
C      -6.27      -2.81      18.43
C     -11.37      -3.83      17.85
