13

N       1.14       8.09      18.06
N       2.75      10.67      17.06
N       3.71       7.63      16.20
N       4.13       8.68      19.36
C       0.00       8.80      17.86
C       4.21       7.80      20.39
C       0.72       6.82      18.44
C       2.96      11.19      15.83
C       2.38      11.75      17.86
C       5.04       7.33      15.89
C       5.21       9.54      19.53
C       2.98       7.00      15.25
Zn       2.98       8.75      17.70
