13

C       7.57      19.97      11.69
N       4.66      20.42      13.65
Zn       6.08      19.11      14.15
N       7.03      19.93      15.75
N       7.35      18.99      12.60
N       5.28      17.31      14.64
C       3.78      20.40      12.58
C       6.51      20.06      17.04
C       4.47      21.62      14.25
C       8.18      17.94      12.21
C       8.29      20.42      15.83
C       5.93      16.44      15.51
C       4.23      16.61      14.16
