13

Zn     -10.40      21.61      17.70
C     -12.66      20.54      15.89
C      -8.86      24.16      17.86
C     -10.83      19.28      19.52
C     -11.83      21.01      20.39
C      -8.26      20.42      15.84
C     -11.91      22.49      15.25
N     -10.04      23.54      18.06
N      -8.62      20.86      17.07
N     -11.73      21.54      16.20
N     -11.03      20.65      19.36
C     -10.93      24.54      18.44
C      -7.49      20.64      17.86
