13

N       2.94      24.81       1.28
N       3.60      26.07      -1.58
N       1.15      23.89      -1.24
N       4.33      22.86      -1.02
C       2.50      24.03       2.35
C       4.87      26.63      -1.53
C       0.72      23.07      -2.28
C       0.01      24.34      -0.66
C       4.66      21.74      -0.33
C       4.96      22.73      -2.25
Zn       3.02      24.35      -0.66
C       3.18      26.03       1.80
C       2.90      26.87      -2.41
