13

C     -21.44      18.87      20.68
C     -19.65      21.59      25.14
C     -21.14      21.01      20.38
N     -19.41      21.50      23.82
N     -20.08      18.39      24.05
N     -17.63      19.44      22.11
N     -20.81      19.99      21.21
C     -19.38      17.34      24.53
C     -17.20      18.73      20.99
C     -16.49      19.84      22.73
C     -18.98      22.77      23.44
C     -21.35      18.25      24.59
Zn     -19.50      19.83      22.74
