13

C      16.51      14.90       0.33
C      21.84      15.94       2.41
C      17.22      15.65       2.25
C      21.09      12.17       0.65
C      19.57      14.17      -2.35
C      20.63      17.53       1.53
C      20.96      15.76      -1.80
C      19.63      12.15       2.28
Zn      19.59      14.78       0.66
N      20.03      14.94      -1.28
N      20.78      16.15       1.58
N      20.13      12.93       1.23
N      17.64      15.17       1.02
