222

Zn       0.28       8.69      13.34
Zn       6.18      14.71      11.55
Zn      11.26      14.79       3.15
Zn      11.93       6.94       7.06
Zn       6.02       0.93       8.86
Zn       0.94       0.85      17.26
Zn      12.85       7.82      10.20
Zn       6.80       6.88      19.07
Zn      13.48       0.01       0.00
Zn       5.41       8.76       1.34
H      11.90      12.74      19.42
H      10.37       7.52      15.41
H       6.04      13.18      15.74
H       2.84       6.12       2.41
H       9.16       3.66       8.89
H       5.63      12.47      20.18
H       3.05      11.98      11.51
H       3.68       4.14      19.09
H       2.47       0.30       5.19
H       5.51      10.31       5.51
H       5.93      11.02       9.96
H      10.00       1.68      12.62
H       8.51      14.09      19.15
H       8.53      11.49       1.31
H       6.69       5.33      14.89
H       9.17       6.23      11.48
H       6.28       4.62      10.45
H       1.83       8.12       5.00
H      12.55       4.89      11.21
H       9.74      15.34      15.22
H       6.17       2.45       4.67
H      12.94       5.88       4.69
H       2.21      13.96       7.79
H       3.04       9.41       8.93
H       3.69       1.55       1.25
H       0.30       2.90       0.98
H      12.30      13.74       5.52
H       9.37       9.52      18.00
H      -0.73       9.76      15.72
H      -0.10       1.90      14.89
H      -0.35      10.75       9.19
H       6.58       3.17       0.23
C       3.06       4.24      19.98
C       8.50      12.43       8.95
C      11.36       3.29      12.07
C       1.68       4.81      12.33
C       1.17       6.20      12.16
C       9.44       2.60      10.75
C       3.98       9.02       3.65
C       1.95       3.40      20.15
C       2.28      10.65      18.11
C       4.35       1.36       5.08
C       1.84       2.67      13.39
C       7.17      13.57      17.53
C      11.15       3.01       2.10
C      10.32      13.90       5.88
C       1.97      13.18       8.51
C       4.38       9.93       7.31
C      11.17       7.52      12.83
C       2.76      13.04       9.66
C      10.03       3.66       1.61
C       2.61       5.34       1.68
C       7.59       5.78      14.48
C       9.02      14.84      15.87
C       8.50       6.45      15.30
C       0.85      12.35       8.33
C       2.94       0.87       3.16
C       3.70       9.19       5.10
C       7.53      12.89       9.99
C       2.79       4.16      11.81
C       2.29       8.71       7.02
C      10.96       6.05       4.33
C       1.03       8.12       7.57
C       7.64       9.51      20.08
C       8.13       5.06       0.24
C       2.44      12.08      10.62
C       8.28       1.67      10.53
C       7.86      14.28      15.33
C       9.26      14.77      17.24
C       1.25       9.59      16.08
C      10.62      13.22       1.31
C       1.88       1.74      14.52
C       5.27       2.01       4.25
C       9.91       6.93      13.38
C       4.07      10.58      20.17
C      10.23       2.45      11.89
C       9.10       4.60       1.29
C      12.25       3.03      13.21
C       4.61       9.86       5.93
C       1.21      10.51      17.22
C       3.71       3.21      11.46
C       0.53      11.38       9.30
C       3.93      13.96       9.88
C       8.80      10.43      19.86
C       9.60      10.29      18.72
C      11.19      11.80       7.25
C       4.60       1.23       6.54
C       3.40       5.21       0.54
C       3.11      11.04      19.12
C       2.90       2.82      12.48
C       9.42      11.48       8.59
C      10.54      15.33      17.79
C       1.05      12.63      18.30
C       4.68       2.75      10.41
C       3.87       1.50       2.32
C       1.17       3.54       0.89
C       8.99       6.28      12.55
C      11.61      10.88      17.41
C       1.32      11.25      10.45
C       9.77       3.56       9.78
C       0.60       4.75       2.99
C      11.82       3.97       2.94
C       4.57       6.13       0.32
C       7.83       5.71      13.10
C      11.65       1.62       1.91
C      11.68       4.26      11.11
C       0.94      10.26      11.49
C       0.39      11.67      17.47
C       1.67       0.30       2.62
C       9.31      12.82       7.92
C      -0.04      12.61       7.20
C      10.26      12.24       0.25
C       7.60      14.41      13.86
C       6.15      12.88      18.37
C       8.33      14.14      18.08
C       1.48       4.50       1.86
C      10.53      10.83       8.07
C       9.92       4.98       2.30
C       6.80       5.02      12.25
C      11.03      12.10      19.52
C       6.06       2.76       2.03
C      10.37      12.97       7.02
C       1.02       3.84      13.16
C       6.94      13.63      16.15
C       3.18       0.80       4.54
C       9.67       7.01      14.76
C       8.22       6.62      16.76
C       2.18      11.98      18.79
C       9.14      11.40       0.42
C      11.27       5.38       8.91
C      10.72      11.13      18.55
C      10.89       4.39       9.96
C      11.00       5.13       3.18
C       5.40      10.61       8.16
C       5.03       2.07       2.87
C       1.59       2.42      19.10
C      11.03       9.44       8.25
C       2.54       8.63       5.64
C       3.22       9.36       7.86
C       0.56      14.02      18.50
O      11.15       8.77       7.16
O       6.35      13.00      19.69
O       3.66       0.94       7.32
O       7.01       5.15      10.93
O       6.39      14.22      13.45
O       7.19       9.48       0.86
O       5.85       4.40      12.73
O       9.98       6.71       4.63
O       5.30       3.60       9.74
O       4.15       9.31      20.27
O       6.90      12.04      10.67
O      12.51      11.58       6.94
O       7.22       8.85      19.08
O      11.48       7.23      11.63
O       7.52       4.19      19.94
O      13.13       3.73       3.25
O       7.48      14.16      10.13
O       4.35      14.62       8.87
O      10.61       5.48       7.83
O       5.01       6.16      19.54
O       2.28       2.30      18.03
O       9.93      13.33       2.37
O      11.57       9.89      16.70
O       1.59      10.16      12.58
O      -0.29      15.24       3.42
O      12.05       6.03       5.17
O      -0.12       9.54      11.33
O       4.99       6.79       1.32
O       9.35      14.56       5.58
O       0.24      14.37      19.67
O       3.07       8.67       2.86
O       1.05       6.87      13.24
O      11.96       1.28       0.74
O       4.68      11.44       0.47
O       0.48      14.70      17.42
O      11.68      13.95       1.17
O      -0.30       4.06      13.47
O       7.86       1.02      11.53
O       1.36       0.60       1.41
O       5.20      10.49       9.47
O       0.35       7.39       6.77
O       2.22       8.93      15.77
O       7.01       6.43      17.16
O      11.32       9.06       9.42
O       5.21      12.26      17.88
O      12.21       2.03      13.91
O       4.39      14.01      11.07
O      11.42      13.88       5.03
O       5.81       1.41       6.96
O       2.86       1.08      14.83
O       7.81       1.63       9.34
O       8.06       6.33       0.13
O       4.72       1.48      10.28
O      12.32       6.10       9.08
O      -0.00      13.60       6.49
O      -0.93      11.90      17.16
O       6.35      11.24       7.67
O       0.88       6.57      10.99
O       0.52       1.69      19.23
O       7.00       3.38       2.53
O       0.79       1.75      15.37
O       0.15       9.61      15.23
O       8.55      14.70      13.09
O       0.73       8.41       8.77
O       5.85       2.64       0.72
O      11.86       8.24      13.64
O      11.73       0.94       2.98
O       5.20       9.21       3.25
O       0.63       5.75       3.71
O      10.84      15.04      18.99
O       9.14       6.97      17.55
O      12.50       0.40      16.98
