26

H       9.37      10.57       8.78
C       9.35      10.29       7.73
H      11.48      10.63       7.47
H       7.36       9.18       5.21
H       9.58       9.27       4.05
C      10.54      10.30       7.02
N      10.62       9.94       5.72
H       6.10      10.30       7.21
H       6.56       8.73       7.83
C       8.17       9.88       7.10
C       8.25       9.52       5.74
C       9.48       9.56       5.10
C       6.86       9.79       7.82
N       3.12      10.20      11.34
H       4.38       9.56       8.29
C       4.39       9.85       9.34
H       2.27       9.50       9.60
H       6.39      10.96      11.86
H       4.17      10.87      13.01
H       7.64       9.83       9.85
H       7.20      11.40       9.23
C       3.20       9.83      10.05
C       5.57      10.26       9.97
C       5.49      10.62      11.32
C       4.26      10.58      11.97
C       6.88      10.35       9.24
