14

C       3.94       6.07      10.01
C       4.22       6.87       7.69
H       3.01       6.63      10.14
O       5.32       8.33       4.61
H       5.58       5.59       8.79
H       5.92       6.54       6.42
H       3.25       7.37       7.73
C       4.94       7.00       6.54
O       5.38       4.45      10.92
O       3.21       8.18       5.43
O       3.80       5.37      12.27
C       4.50       7.88       5.43
C       4.37       5.26      11.17
C       4.64       6.14       8.85
