14

H       3.27      12.32       8.27
C       4.21      12.87       8.22
C       4.63      13.60       9.38
C       3.90      13.72      10.53
H       5.59      14.10       9.34
H       2.92      13.25      10.64
H       5.84      13.36       6.93
C       4.46      12.00       5.89
C       4.34      14.60      11.63
C       4.91      12.81       7.06
O       3.51      15.07      12.44
O       3.46      11.19       6.15
O       5.63      14.89      11.64
O       5.02      12.11       4.78
