15

O       6.69      10.77       1.35
Ni       5.88       9.61       0.13
Ni       7.79      10.64      -1.98
H       8.01       8.57      -0.44
O       7.85      11.87      -0.27
C       4.75      11.14      -1.89
C      10.02      11.52      -2.52
O       7.22       8.82      -0.95
O       5.87      11.29      -2.43
O       4.49      10.34      -0.88
C       7.40      11.77       0.90
O       9.90      10.43      -1.84
O       8.99      12.11      -2.97
C       7.52       8.48      -4.09
O       7.80       9.65      -3.80
