64

Ce       2.18       9.60       6.95
Ce       2.17       7.27      13.31
Ce      -0.43      12.90       5.77
Ce      -0.42      15.23      -0.59
C      -1.26      10.06       7.01
C       1.76       7.62       9.76
C       0.01      17.51      -2.98
C       2.96      14.66      -0.59
C      -1.12       8.94       7.99
C       0.32       7.79       9.35
C       1.45      17.23      -2.66
C       2.87      15.84      -1.53
C       5.61       6.81      13.37
C       2.58       9.26       3.40
C      -0.86      10.62       3.38
C      -3.81      13.47       5.77
C       5.46       7.93       1.63
C       4.02       9.09       2.99
C      -2.30      10.90       3.70
C      -3.71      12.28       4.83
C       3.01      12.44       5.71
C      -0.01      14.88       2.96
C       1.74       4.99      15.70
C      -1.22       7.84      13.31
C       2.87      13.56       4.73
C       1.43      14.71       3.37
C       0.30       5.27      15.38
C      -1.12       6.66      14.25
C       1.33       4.44      12.07
C      -0.84      13.24       9.32
C       2.61      11.88       9.34
C       5.56       9.03       6.95
C      -3.72      14.57      11.09
C      -2.28      13.41       9.73
C       4.05      11.60       9.02
C       5.46      10.22       7.89
N       0.14       8.67       8.36
N       1.63      16.15      -1.91
N       4.21       8.21       2.00
N      -2.48      11.98       4.45
N       1.61      13.83       4.36
N       0.12       6.36      14.63
N      -2.46      14.29      10.72
N       4.22      10.52       8.27
O      -0.18      10.41       6.39
O       2.61       8.02       8.90
O       2.03       7.13      10.86
O      -0.85      16.66      -2.75
O       1.85      14.22      -0.14
O       4.53       6.46      12.75
O       1.74       8.86       2.54
O       2.32       9.75       4.50
O       0.01      11.47       3.61
O      -2.70      13.91       6.22
O       1.93      12.09       6.33
O      -0.86      14.48       3.82
O      -0.28      15.37       1.86
O       2.60       5.84      15.47
O      -0.10       8.28      12.86
O       2.41       4.79      12.69
O       0.01      13.64      10.18
O      -0.57      12.75       8.22
O       1.74      11.03       9.11
O       4.45       8.59       6.50
