13

H      15.47      10.05       6.94
H      15.48       8.10       4.98
C      13.00       6.43       5.17
C      13.61       7.51       5.96
C      14.75       8.26       5.77
C      12.98       9.84       8.59
C      13.60       9.06       7.52
C      14.75       9.26       6.77
O      11.94       5.89       5.64
O      13.59       6.15       4.08
O      12.91       7.98       7.04
O      11.92       9.38       9.11
O      13.58      10.94       8.88
