13

H       5.84       0.58      12.50
H       5.83       2.52      14.46
O       9.38      -1.62      13.14
O       7.72      -1.36      11.59
O       8.42       0.47      14.54
O       9.38       1.86      16.64
O       7.71       3.40      16.42
C       8.32      -1.08      12.68
C       7.72       0.00      13.47
C       6.56       0.74      13.28
C       8.32       2.32      16.12
C       7.71       1.54      15.03
C       6.56       1.73      14.29
