13

H       8.66      10.41      15.09
H       5.76       8.10      18.77
N       8.06       9.36      18.07
N       8.96       9.79      17.11
N       6.91       9.85      16.22
H       4.85       8.77      17.41
H       4.07       9.79      19.57
H       4.84      11.04      18.56
H       5.72      10.34      19.93
C       6.84       9.41      17.50
C       8.23      10.07      16.02
C       5.58       9.02      18.19
C       5.02      10.11      19.12
