13

H      10.43       0.62      12.93
H       8.94       2.52      13.57
H       8.73       2.96      11.86
H       8.07       1.43      12.48
C      10.22       0.83      10.83
C       9.86      -0.44       9.15
C      10.23       1.42      12.20
C       8.91       2.12      12.55
N      10.68       1.47       9.74
N      10.45       0.65       8.66
N       9.69      -0.38      10.49
H       9.56      -1.29       8.54
H      11.07       2.12      12.25
