98

H      20.85      29.44       4.56
H      19.47      30.78       6.12
H      16.38      27.80       5.98
H      17.76      26.44       4.41
H      26.56      29.36       6.82
H      27.69      30.60       8.65
H      31.14      28.08       8.28
H      30.04      26.83       6.43
H      20.64      25.69       1.06
H      23.81      27.33       4.30
H      27.60      25.73       3.03
H      26.50      24.61       1.15
H      22.06      27.91       3.70
H      19.65      26.13       3.06
H      25.65      27.98       5.47
H      28.31      26.54       4.89
C      27.80      19.43      -4.38
C      29.04      19.90      -4.87
C      29.79      19.14      -5.75
C      29.34      17.87      -6.16
C      28.12      17.39      -5.67
C      27.37      18.15      -4.79
C      30.15      17.06      -7.12
C      27.93      28.23      -6.47
C      29.01      27.58      -7.12
C      29.71      28.21      -8.14
C      29.36      29.50      -8.56
C      28.29      30.16      -7.93
C      27.59      29.53      -6.90
C      30.11      30.18      -9.65
C      24.68      23.90      -0.47
C      24.77      22.45      -0.29
C      25.57      21.71      -1.24
C      26.24      22.30      -2.29
C      26.11      23.74      -2.49
C      25.32      24.52      -1.56
C      26.70      24.40      -3.56
C      26.58      25.79      -3.79
C      25.80      26.54      -2.86
C      25.20      25.93      -1.79
C      27.09      21.52      -3.19
C      26.95      20.21      -3.48
C      27.27      26.36      -4.92
C      27.19      27.64      -5.37
H      29.41      20.88      -4.56
H      30.74      19.50      -6.13
H      27.78      16.41      -6.00
H      26.42      17.77      -4.41
H      29.31      26.58      -6.81
O      17.51      31.31       7.46
H      28.02      31.16      -8.26
O      31.30      29.72      10.04
O      29.58      31.22      10.10
O      15.93      29.66       7.52
H      26.77      30.05      -6.41
H      30.55      27.72      -8.62
H      25.67      20.64      -1.05
O      21.89      24.22      -0.66
H      27.28      23.83      -4.29
H      24.60      26.51      -1.09
H      27.89      22.07      -3.68
H      25.68      27.61      -3.00
H      27.92      25.67      -5.46
H      26.49      28.33      -4.88
H      26.11      19.66      -3.05
O      31.30      17.53      -7.45
O      29.63      15.97      -7.54
O      29.65      31.32     -10.04
O      31.15      29.60     -10.10
O      24.22      21.88       0.69
C      19.42      27.83       4.38
C      19.88      29.06       4.87
C      19.11      29.82       5.74
C      17.85      29.37       6.15
C      17.36      28.14       5.66
C      18.13      27.39       4.78
C      17.03      30.17       7.11
C      28.21      27.99       6.48
C      27.56      29.06       7.14
C      28.18      29.77       8.16
C      29.48      29.41       8.57
C      30.14      28.34       7.95
C      29.52      27.65       6.91
C      30.16      30.17       9.65
C      23.90      24.68       0.52
C      22.45      24.77       0.32
C      21.70      25.59       1.26
C      22.29      26.26       2.31
C      23.73      26.13       2.51
C      24.51      25.34       1.60
C      24.38      26.74       3.58
C      25.77      26.63       3.81
C      26.53      25.84       2.90
C      25.92      25.22       1.83
C      21.51      27.11       3.21
C      20.19      26.97       3.49
C      26.34      27.33       4.94
C      27.63      27.24       5.38
