15

C       9.14      16.76       2.96
C      10.34      16.04       2.65
C      10.83      16.03       1.33
C      10.13      16.73       0.35
C       8.97      17.42       0.68
C      10.96      15.32       3.68
C       8.17      18.16      -0.34
H      11.73      15.48       1.09
H      10.46      16.74      -0.69
H       8.02      19.21      -0.03
H       8.65      18.15      -1.32
H       7.17      17.71      -0.45
O       8.70      16.74       4.18
N      11.47      14.72       4.55
N       8.49      17.44       1.97
