15

H       1.16       0.35      13.75
H       1.80      -0.33      15.27
H       2.30      -1.04      13.71
O       3.88       4.16      15.33
C       4.04       3.01      14.77
C       5.31       2.67      14.20
C       5.50       1.40      13.62
C       4.44       0.49      13.61
C       3.21       0.85      14.16
C       6.35       3.60      14.32
N       3.01       2.09      14.71
C       2.05      -0.10      14.22
N       7.23       4.37      14.42
H       6.47       1.13      13.21
H       4.56      -0.50      13.19
