15

C      -2.04      15.06      11.17
C      -1.07      15.60      10.28
C      -0.08      16.48      10.76
C      -0.06      16.80      12.11
N      -1.97      15.38      12.51
C      -1.00      16.24      12.98
C      -1.00      16.55      14.44
H      -1.34      17.59      14.62
H       0.01      16.45      14.86
C      -1.08      15.18       8.93
H      -1.67      15.88      14.99
H       0.69      17.48      12.52
H       0.66      16.89      10.08
O      -2.96      14.27      10.72
N      -1.05      14.84       7.81
