15

C       8.16       6.84       7.13
C       6.97       6.11       7.44
C       6.47       6.10       8.76
C       7.16       6.80       9.74
C       8.33       7.49       9.42
C       6.35       5.40       6.40
C       9.12       8.23      10.44
O       8.61       6.83       5.92
N       8.82       7.50       8.14
H       5.56       5.55       8.99
N       5.85       4.79       5.53
H       6.81       6.81      10.77
H       9.27       9.28      10.14
H       8.62       8.22      11.42
H      10.11       7.78      10.57
