15

O      -0.33       3.14      16.05
H      -0.28       1.72      21.54
H       1.20       2.17      20.67
N      -3.10       5.15      15.68
N      -0.12       2.43      18.26
H      -3.36       4.40      19.13
H      -2.09       3.14      20.91
C      -0.77       3.11      17.26
H       0.35       0.66      20.26
C      -1.97       3.83      17.58
C      -2.46       3.84      18.90
C      -1.76       3.14      19.88
C      -0.60       2.45      19.54
C      -2.59       4.55      16.54
C       0.20       1.71      20.56
