16

O       0.91       0.30       4.03
O      -1.07      -0.38       4.85
O      -0.96       6.97       4.51
O      -3.11       6.33       4.05
C      -0.64       2.73       5.43
C      -0.97       4.09       5.42
C      -1.46       4.68       4.25
C      -1.56       3.91       3.09
C      -1.18       2.56       3.09
C      -0.74       1.95       4.28
C      -0.28       0.52       4.37
C      -1.89       6.12       4.27
F      -0.18       2.18       6.57
F      -0.86       4.80       6.56
F      -1.99       4.47       1.94
F      -1.23       1.86       1.94
