16

C       5.64       1.53       5.53
C       6.84       1.52       6.40
C       4.97       0.32       5.27
C       5.18       2.74       4.98
H       5.34      -0.60       5.72
H       5.73       3.66       5.21
C       4.06       2.75       4.17
C       3.86       0.32       4.43
H       3.33      -0.60       4.19
C       3.40       1.53       3.88
H       3.68       3.67       3.73
C       2.22       1.52       2.99
O       7.48       0.42       6.57
O       7.23       2.57       6.99
O       1.95       2.51       2.24
O       1.46       0.48       2.98
