16

H       5.33      10.08       3.77
H       5.72       5.83       4.27
H       3.67       5.81       5.76
H       3.33      10.08       5.30
O       7.47       9.07       2.91
O       7.22       6.91       2.48
O       1.94       6.97       7.25
O       1.46       9.00       6.51
C       5.63       7.95       3.95
C       6.83       7.96       3.07
C       4.96       9.16       4.22
C       5.18       6.74       4.50
C       4.05       6.74       5.32
C       3.40       7.95       5.60
C       2.21       7.96       6.49
C       3.86       9.16       5.06
