122

Cu       3.51       4.68       7.45
Cu       6.25       4.68       7.45
H       5.06       6.39      11.75
H       7.30       6.23       9.38
H       4.59       2.18      11.35
H       1.29       3.92       5.52
H       4.35       0.75      13.29
H       4.66       2.94       3.11
H       5.02       7.17       3.59
H       4.95       8.61       1.68
H       6.80       0.41       6.39
H       2.04       2.08       3.89
H       1.56       0.42       4.36
H       3.32       0.92       4.39
H       0.09      -0.04       9.81
H       1.03       1.49       9.72
H       8.96       1.55       9.79
H       0.20       2.01       7.54
H       8.76       0.71       7.49
H       9.47       8.42       9.03
H       8.36       9.77       8.59
H       7.95       8.13       8.12
H       9.00       9.60       6.25
H       9.59       7.94       6.48
H       3.13       8.54       4.31
H       1.31       8.65       4.33
H       2.12       7.09       3.99
H       7.60      10.05       4.38
H       6.02       9.27       3.96
H       7.56       8.35       3.82
H       8.10       5.11       4.05
H       9.55       4.14       3.59
H       7.89       3.53       3.21
H       9.01       2.39       5.20
H       7.42       3.02       5.53
H       6.85       8.03      10.65
H       8.48       8.75      11.06
H       7.25       8.55      12.30
H       0.06       7.05      13.50
H       0.70       8.25      12.27
H       1.76       7.55      13.51
H       3.01       7.79      11.14
H       1.79       8.47       9.96
H       3.53       8.38       9.57
H       2.38       2.14       1.43
H       2.84       0.41       1.44
H       2.49      -0.25      14.76
H       6.15      10.34       0.86
H       7.06       8.07      14.55
H       6.05      -1.21      14.19
H       4.96       8.05      12.98
H       4.00       8.43      14.40
C       4.83       2.10       7.30
C       4.84       5.34      13.65
C       4.44       1.62      13.94
C       4.55       2.95       0.42
C       4.71       4.07       1.26
C       4.84       5.36       0.71
C       4.92       6.49       1.55
C       4.96       7.77       1.01
C       4.87       6.48      14.52
C       4.74       3.92       2.66
C       4.89       5.04       3.47
C       4.90       4.90       4.91
C       4.95       6.32       2.93
C       2.26       0.66       6.79
C       1.11       0.08       7.29
C       1.18       9.55       7.10
C       2.33       8.83       6.71
C       3.62       9.42       6.90
C       3.48      -0.03       6.93
C       4.74       0.64       6.98
C       5.87      -0.10       6.61
C       5.98       9.36       6.44
C       4.90       7.24       7.26
C       4.83       8.69       6.89
C       8.32       5.94       9.51
C       8.92       6.31      10.70
C       0.57       6.21      10.81
C       1.32       6.00       9.62
C       0.72       5.29       8.51
C       9.01       5.28       8.48
C       9.06       4.16       6.42
C       0.75       4.25       6.39
C       4.86       4.44      10.00
C       4.93       5.45      12.25
C       4.84       4.31      11.44
C       4.67       3.05      12.00
C       4.61       2.90      13.38
C       4.70       4.04      14.21
C       2.27       1.24       4.58
C       0.03       0.97       7.86
C       0.10       0.99       9.38
C       9.55       8.95       6.94
C       8.80       8.82       8.26
C       2.19       8.02       4.59
C       7.02       9.11       4.42
C       8.44       3.34       5.30
C       8.50       4.08       3.96
C       7.66       8.08      11.40
C       0.91       7.32      12.84
C       2.70       7.85      10.08
C       3.00       1.37       0.91
C       4.93       7.93      14.07
C       6.13       8.66      14.68
N       8.31       4.69       7.46
N       1.46       4.69       7.46
O       3.69       2.72       7.45
O       6.00       2.72       7.45
O       3.75       4.87       5.52
O       6.06       4.87       5.52
O       3.76       6.64       7.45
O       6.07       6.64       7.45
O       3.70       4.49       9.38
O       6.02       4.49       9.38
O       2.12       1.71       5.91
O       2.17       7.67       5.96
O       6.93       8.63       5.75
O       8.14       6.79      11.74
O       1.26       6.23      12.02
O       2.58       6.55       9.52
O       4.37       1.69       0.96
