22

Zn       3.74       8.05       4.08
Zn       6.82       8.93       4.74
H       1.32       7.40       4.04
H       0.65       6.13       2.30
H       1.33       7.66       1.69
H       2.91       5.01       1.95
H       3.54       6.54       1.29
H       2.27       5.67       0.42
C       5.70       9.43       2.20
C       4.45       8.49       6.62
C       1.58      10.12       4.37
C       6.08       6.12       4.27
C       1.58       6.71       2.18
C       2.64       5.94       1.42
O       4.71       8.66       2.33
O       6.45       9.92       3.10
O       5.15       9.13       5.73
O       2.77       9.90       4.03
O       0.79       9.22       4.85
O       7.01       6.97       4.51
O       4.87       6.33       4.05
O       2.06       6.99       3.53
