544

La       9.54      16.51       6.56
La      13.33      15.54       5.16
La       9.54       5.27      15.23
La      13.34       6.24      16.63
La      21.04      17.46      16.17
La      24.83      16.05      17.14
La       5.71       4.33       5.62
La       9.51       5.73       4.65
La      17.22       6.56      16.52
La      21.00       5.15      15.55
La      17.21      15.23       5.28
La      21.00      16.64       6.25
La      13.37      16.17      17.45
La      17.16      17.14      16.04
La      13.38       5.62       4.34
La      17.17       4.65       5.73
H      11.85      15.35      10.48
H      12.61      15.29      12.86
H      26.08      19.21      14.85
H      24.74      21.12      14.05
H      24.06      21.24      11.65
H      24.74      19.46      10.06
H      14.24      10.92       3.80
H      14.96       8.56       3.99
H      17.30       8.32       8.20
H      17.96       9.96       9.91
H      17.18      12.34       9.73
H      15.86      13.06       7.79
H       9.59      11.98       4.33
H      10.26       9.60       3.99
H      13.14       8.58       7.74
H      13.98       9.88       9.65
H      13.32      12.27       9.95
H      11.85      13.36       8.31
H      11.86       6.43      11.31
H      12.63       6.49       8.93
H      10.77       2.57       6.94
H       9.43       0.66       7.74
H       8.73       0.54      10.13
H       9.41       2.32      11.72
H      14.23      10.87      17.99
H      14.94      13.23      17.79
H      17.28      13.47      13.59
H      17.96      11.84      11.89
H      17.19       9.45      12.07
H      15.88       8.73      14.00
H       9.58       9.79      17.46
H      25.59      12.18      17.80
H      13.12      13.20      14.05
H      13.97      11.91      12.14
H      13.33       9.51      11.84
H      11.85       8.42      13.49
H      23.35      21.38      17.34
H      16.45       1.97      17.40
H      14.59       3.96      13.47
H      13.25       3.15      11.56
H      12.57       0.75      11.44
H      20.90      20.96      13.23
H      25.73      14.69      21.77
H      18.79      14.89       2.34
H      21.13      19.10       2.58
H      21.80      20.80       0.95
H      28.69      20.61      20.35
H      27.37      18.68      19.63
H      21.09      15.22      20.69
H      14.10      14.89       1.29
H      16.96      18.63       2.32
H      17.82      20.55       1.03
H      24.83      20.84      20.42
H      23.36      19.19      19.33
H       8.04       0.42       4.46
H      16.46      19.83       4.40
H      14.60      17.83       8.32
H      13.25      18.63      10.23
H      12.56      21.02      10.35
H       5.58       0.82       8.57
H      10.40       7.08       0.03
H      18.79       6.89      19.46
H      21.13       2.69      19.22
H      21.79       0.98      20.86
H      13.36       1.17       1.45
H      12.04       3.09       2.16
H       5.76       6.56       1.09
H      14.08       6.89      20.49
H      16.97       3.15      19.48
H      17.81       1.24      20.78
H       9.49       0.94       1.39
H       8.01       2.59       2.47
H      19.53      10.49      15.35
H      20.28      12.87      15.29
H      18.41      14.86      19.21
H      17.07      14.04      21.12
H      16.39      11.65      21.24
H      17.07      10.06      19.46
H       6.56       3.80      10.92
H       7.29       3.99       8.56
H       9.63       8.20       8.32
H      10.29       9.90       9.96
H       9.51       9.72      12.34
H       8.19       7.79      13.06
H      17.27       4.33      11.99
H      17.93       3.99       9.60
H      20.81       7.74       8.58
H      21.65       9.65       9.88
H      21.00       9.95      12.27
H      19.52       8.30      13.36
H      19.53      11.31       6.44
H      20.29       8.93       6.50
H      18.44       6.94       2.57
H      17.09       7.75       0.66
H      16.40      10.14       0.55
H      17.08      11.73       2.33
H      21.89      17.98      10.88
H      22.61      17.79      13.24
H       9.62      13.59      13.48
H      10.29      11.88      11.84
H       9.52      12.07       9.46
H       8.20      13.99       8.74
H      17.25      17.46       9.81
H      17.93      17.79      12.19
H      20.79      14.04      13.21
H      21.64      12.13      11.91
H      21.00      11.84       9.52
H      19.52      13.49       8.43
H      15.68      17.33      21.38
H       8.77      17.40       1.97
H       6.92      13.47       3.96
H       5.58      11.56       3.15
H       4.89      11.44       0.75
H      13.23      13.21      20.96
H      18.05      21.76      14.70
H      11.12       2.33      14.89
H      13.46       2.58      19.09
H      14.13       0.94      20.80
H      21.02      20.35      20.61
H      19.70      19.63      18.69
H      13.42      20.69      15.22
H       6.43       1.29      14.88
H       9.30       2.31      18.63
H      10.15       1.02      20.55
H      17.16      20.41      20.84
H      15.68      19.32      19.19
H      15.71       4.46       0.42
H       8.79       4.39      19.83
H      22.27       8.31      17.83
H      20.92      10.22      18.63
H      20.23      10.34      21.02
H      13.25       8.57       0.82
H       2.73       0.02       7.09
H      11.11      19.45       6.90
H      13.46      19.22       2.69
H      14.12      20.85       0.99
H       5.69       1.44       1.17
H       4.37       2.16       3.09
H      13.43       1.09       6.56
H      21.75      20.50       6.90
H       9.29      19.49       3.15
H      10.14      20.79       1.24
H       1.82       1.38       0.94
H      15.68       2.47       2.59
C      10.51      17.13       9.20
C      10.84      17.22      10.65
C      11.59      16.16      11.16
C      12.00      16.12      12.49
C      11.62      17.12      13.37
C      12.13      16.99      14.77
C      26.17      18.22      12.93
C      25.78      19.26      13.81
C      25.04      20.33      13.36
C      24.66      20.40      12.00
C      25.03      19.41      11.11
C      25.79      18.29      11.53
C      14.57      12.89       5.42
C      15.08      11.52       5.67
C      14.79      10.59       4.68
C      15.19       9.26       4.80
C      15.86       8.80       5.93
C      16.10       7.34       6.00
C      16.23       9.73       6.96
C      16.99       9.35       8.10
C      17.34      10.28       9.07
C      16.92      11.62       8.96
C      16.18      12.02       7.87
C      15.83      11.12       6.83
C      10.40      13.64       6.24
C      10.79      12.21       6.10
C      10.26      11.50       5.03
C      10.63      10.15       4.85
C      11.49       9.51       5.74
C      11.88       8.12       5.39
C      12.01      10.21       6.88
C      12.85       9.62       7.86
C      13.31      10.35       8.94
C      12.96      11.71       9.10
C      12.14      12.32       8.17
C      11.65      11.60       7.05
C      10.52       4.66      12.59
C      10.86       4.57      11.13
C      11.61       5.63      10.63
C      12.02       5.67       9.29
C      11.65       4.66       8.41
C      12.15       4.79       7.01
C      10.85       3.56       8.86
C      10.47       2.51       7.98
C       9.72       1.45       8.43
C       9.33       1.38       9.79
C       9.70       2.37      10.68
C      10.47       3.50      10.25
C      14.57       8.89      16.37
C      15.08      10.27      16.12
C      14.78      11.20      17.11
C      15.17      12.53      16.99
C      15.84      12.99      15.86
C      16.07      14.45      15.78
C      16.22      12.06      14.83
C      16.98      12.44      13.69
C      17.34      11.52      12.72
C      16.93      10.18      12.84
C      16.18       9.77      13.92
C      15.83      10.67      14.96
C      10.40       8.14      15.55
C      10.79       9.57      15.69
C      10.26      10.28      16.76
C      10.62      11.62      16.94
C      11.48      12.27      16.05
C      11.86      13.66      16.40
C      12.00      11.57      14.91
C      12.83      12.17      13.92
C      13.30      11.43      12.85
C      12.95      10.08      12.69
C      12.14       9.46      13.62
C      11.65      10.18      14.74
C      22.02      20.10      15.56
C      22.35      21.56      15.47
C      15.44       0.27      16.53
C      15.85       1.61      16.57
C      15.48       2.49      15.56
C      15.99       3.89      15.69
C      14.68       2.03      14.46
C      14.30       2.91      13.42
C      13.55       2.46      12.35
C      13.16       1.10      12.28
C      13.54       0.21      13.27
C      14.30       0.64      14.40
C      26.07      16.31      19.79
C      26.58      16.56      21.17
C      18.62      15.57       0.31
C      19.02      15.70       1.64
C      19.69      16.83       2.10
C      19.92      16.91       3.56
C      20.06      17.86       1.17
C      20.82      19.00       1.55
C      21.18      19.96       0.63
C      28.42      19.84      21.07
C      27.68      18.76      20.67
C      27.33      17.72      21.57
C      21.90      17.13      19.04
C      22.29      16.99      20.47
C      21.76      15.92      21.18
C      14.46      15.75       0.74
C      15.32      16.63       1.38
C      15.71      16.29       2.77
C      15.84      17.77       0.68
C      16.68      18.76       1.28
C      17.15      19.83       0.55
C      24.46      19.99      20.98
C      23.64      19.06      20.37
C      23.15      17.94      21.09
C       6.69       1.69       6.23
C       7.03       0.24       6.32
C      15.44      21.53       5.27
C      15.85      20.19       5.22
C      15.47      19.31       6.23
C      15.97      17.91       6.10
C      14.68      19.76       7.32
C      14.29      18.87       8.37
C      13.55      19.32       9.44
C      13.16      20.68       9.51
C      13.53      21.57       8.52
C      14.29      21.15       7.39
C      10.74       5.47       2.00
C      11.25       5.22       0.62
C      18.61       6.20      21.49
C      19.01       6.09      20.15
C      19.69       4.96      19.70
C      19.92       4.88      18.24
C      20.06       3.92      20.63
C      20.82       2.78      20.25
C      21.18       1.82      21.17
C      13.10       1.93       0.72
C      12.35       3.02       1.13
C      12.01       4.06       0.23
C       6.58       4.66       2.75
C       6.96       4.80       1.32
C       6.43       5.86       0.60
C      14.45       6.03      21.05
C      15.31       5.15      20.41
C      15.71       5.50      19.02
C      15.84       4.01      21.11
C      16.67       3.02      20.52
C      17.14       1.95      21.25
C       9.12       1.80       0.82
C       8.30       2.72       1.43
C       7.82       3.85       0.70
C      18.19       9.20      17.13
C      18.52      10.66      17.22
C      19.27      11.16      16.16
C      19.68      12.50      16.12
C      19.30      13.38      17.12
C      19.80      14.78      16.99
C      18.51      12.93      18.22
C      18.12      13.81      19.27
C      17.37      13.36      20.33
C      16.99      12.00      20.40
C      17.37      11.11      19.41
C      18.13      11.53      18.29
C       6.90       5.42      12.90
C       7.41       5.67      11.52
C       7.11       4.67      10.59
C       7.52       4.79       9.26
C       8.19       5.92       8.80
C       8.43       6.00       7.34
C       8.56       6.96       9.73
C       9.32       8.10       9.36
C       9.67       9.06      10.28
C       9.25       8.95      11.62
C       8.51       7.86      12.03
C       8.16       6.82      11.12
C      18.08       6.23      13.65
C      18.46       6.09      12.21
C      17.94       5.03      11.50
C      18.30       4.85      10.16
C      19.16       5.74       9.51
C      19.55       5.39       8.12
C      19.68       6.88      10.21
C      20.52       7.86       9.62
C      20.98       8.94      10.35
C      20.63       9.10      11.71
C      19.81       8.17      12.32
C      19.33       7.05      11.60
C      18.19      12.59       4.66
C      18.53      11.13       4.57
C      19.28      10.63       5.63
C      19.69       9.29       5.67
C      19.31       8.41       4.66
C       4.47       7.01       4.79
C      18.52       8.87       3.57
C      18.14       7.98       2.52
C      17.39       8.44       1.45
C      17.00       9.79       1.39
C      17.37      10.68       2.38
C      18.13      10.26       3.50
C      22.24      16.37       8.90
C      22.75      16.12      10.28
C      22.45      17.11      11.21
C      22.84      16.99      12.54
C      23.51      15.85      12.99
C      23.75      15.78      14.46
C      23.89      14.82      12.06
C       9.31      13.68      12.44
C       9.67      12.72      11.52
C       9.26      12.83      10.18
C       8.51      13.92       9.77
C      23.50      14.96      10.68
C      18.07      15.55       8.15
C      18.45      15.69       9.58
C      17.93      16.76      10.29
C      18.29      16.93      11.64
C      19.15      16.05      12.28
C      19.54      16.39      13.67
C      19.67      14.91      11.58
C      20.51      13.92      12.17
C      20.97      12.85      11.44
C      20.62      12.69      10.08
C      19.81      13.62       9.47
C      19.32      14.74      10.19
C      14.34      15.55      20.09
C      14.67      15.46      21.55
C       7.76      16.53       0.26
C       8.17      16.57       1.60
C       7.80      15.56       2.48
C       8.30      15.69       3.88
C       7.01      14.46       2.03
C       6.62      13.41       2.91
C       5.87      12.35       2.46
C       5.49      12.28       1.10
C       5.86      13.27       0.21
C       6.62      14.39       0.64
C      18.40      19.79      16.31
C      18.91      21.17      16.56
C      10.95       0.30      15.57
C      11.34       1.64      15.69
C      12.01       2.09      16.82
C      12.25       3.55      16.90
C      12.39       1.16      17.85
C      13.15       1.54      19.00
C      13.51       0.62      19.96
C      20.75      21.07      19.85
C      20.01      20.66      18.76
C      19.66      21.57      17.72
C      14.23      19.03      17.13
C      14.61      20.47      16.99
C      14.09      21.18      15.93
C       6.80       0.73      15.75
C       7.65       1.38      16.63
C       8.04       2.77      16.29
C       8.17       0.68      17.77
C       9.01       1.27      18.76
C       9.48       0.54      19.83
C      16.78      20.97      19.99
C      15.97      20.36      19.06
C      15.48      21.08      17.94
C      14.36       6.23       1.70
C      14.70       6.33       0.24
C      23.11       5.26      21.53
C      23.52       5.22      20.19
C      23.15       6.22      19.31
C      23.65       6.09      17.91
C      22.35       7.32      19.76
C      21.97       8.37      18.87
C      21.22       9.43      19.32
C      20.83       9.50      20.68
C      21.20       8.51      21.57
C      21.97       7.39      21.15
C       3.07       2.00       5.47
C       3.58       0.62       5.22
C      10.94      21.48       6.21
C      11.34      20.15       6.09
C      12.01      19.70       4.96
C      12.25      18.23       4.89
C      12.39      20.63       3.93
C      13.15      20.25       2.79
C      13.50      21.17       1.83
C       5.43       0.72       1.94
C       4.68       1.13       3.02
C       4.34       0.22       4.07
C      14.24       2.75       4.66
C      14.62       1.32       4.80
C      14.10       0.60       5.86
C      22.12      21.05       6.04
C      22.98      20.41       5.16
C      23.37      19.02       5.50
C      23.50      21.11       4.01
C       9.00      20.52       3.03
C       9.47      21.25       1.96
C       1.46       0.82       1.80
C      15.98       1.43       2.72
C      15.49       0.71       3.85
O      10.97      16.12       8.54
O       9.76      17.99       8.60
O      26.63      16.93      15.77
O      13.37      16.88      14.95
O      15.14      13.93       5.98
O      13.56      13.07       4.67
O      15.63       6.58       5.04
O      16.75       6.78       6.94
O      11.31      14.57       6.11
O       9.20      13.94       6.46
O      12.93       7.59       5.85
O      11.14       7.47       4.54
O      10.99       5.66      13.25
O       9.76       3.80      13.17
O      11.31       4.85       6.02
O      13.39       4.91       6.83
O      15.15       7.86      15.81
O      13.57       8.71      17.12
O      15.63      15.21      16.75
O      16.70      15.01      14.82
O      11.32       7.22      15.68
O       9.21       7.84      15.33
O      12.91      14.19      15.93
O      11.12      14.31      17.25
O      22.49      19.44      16.56
O      21.28      19.50      14.70
O      15.15       4.89      15.75
O      17.23       4.06      15.80
O      26.64      16.87      18.76
O      25.06      15.56      19.62
O      19.47      15.94       4.33
O      20.56      17.86       4.12
O      22.81      17.00      18.12
O      20.71      17.36      18.74
O      16.77      16.75       3.30
O      14.98      15.43       3.43
O       7.16       2.36       5.23
O       5.93       2.28       7.09
O      15.13      16.92       6.04
O      17.22      17.73       5.98
O      11.32       4.92       3.04
O       9.73       6.22       2.18
O      19.47       5.85      17.48
O      20.57       3.93      17.68
O       7.50       4.79       3.67
O       5.38       4.43       3.06
O      16.76       5.03      18.49
O      14.98       6.36      18.37
O      18.66       8.54      16.12
O      17.45       8.61      17.99
O      18.95      15.77      16.93
O      21.04      14.97      16.88
O       7.46       5.98      13.93
O      21.23       4.66      13.07
O       7.97       5.04       6.58
O       9.09       6.94       6.78
O      19.00       6.10      14.57
O      16.89       6.47      13.95
O       5.27       5.85       7.60
O      18.81       4.54       7.47
O      18.64      13.25       5.68
O      17.45      13.19       3.80
O      18.97       6.02       4.85
O       5.72       6.82       4.91
O      22.81      15.81       7.86
O      21.23      17.12       8.72
O      23.30      16.74      15.22
O      24.38      14.82      15.02
O      18.98      15.68       7.22
O      16.87      15.33       7.84
O      20.59      15.93      14.20
O      18.81      17.25      14.32
O      14.80      16.56      19.43
O      13.59      14.69      19.49
O       7.46      15.75       4.87
O       9.55      15.80       4.06
O      18.97      18.75      16.87
O      17.39      19.61      15.56
O      11.79       4.32      15.94
O      12.90       4.11      17.84
O      15.14      18.11      16.99
O      13.03      18.73      17.36
O       9.09       3.30      16.75
O       7.30       3.42      15.43
O      14.81       5.22       2.35
O      13.62       7.10       2.29
O      22.80       6.04      16.92
O       9.55       5.98      17.72
O       3.64       3.04       4.91
O      17.42       2.17       6.24
O      11.79      17.47       5.85
O      12.89      17.67       3.94
O      15.15       3.67       4.79
O      13.04       3.05       4.43
O       9.09      18.50       5.05
O      22.63      18.37       6.35
