20

C       7.67       5.61       8.19
C       6.87       0.36       9.80
C       6.20       2.37      10.71
C       5.98       3.14       5.95
C       8.89       1.03       6.04
C       9.69       6.29       4.43
C      10.36       4.27       3.51
C      10.58       3.51       8.28
Cu       7.84       2.75       8.17
Cu       8.72       3.90       6.06
N       6.90       1.70       9.78
N       9.66       4.94       4.45
O       7.44       4.58       8.91
O       8.18       5.60       7.02
O       6.88       3.72       5.25
O       6.10       2.78       7.16
O       9.12       2.06       5.32
O       8.38       1.04       7.21
O       9.69       2.93       8.97
O      10.46       3.87       7.06
