14

C       2.24      13.42       0.77
O       1.76      13.25       4.49
O       3.57      11.96       4.56
Cd       0.66      14.59       2.97
Cd       3.86      14.07       3.55
O       3.06      13.14       1.70
O       1.04      13.86       0.94
O       4.37      15.06       5.58
O       6.08      14.58       4.28
C       2.25      16.93       3.27
C       5.63      14.98       5.45
C       2.31      12.11       4.73
O       1.00      16.74       3.48
O       2.99      16.02       2.75
