16

O       8.39      16.10       9.65
O       7.39      14.73       8.18
C       2.69      19.15       9.14
C       3.89      18.26       9.08
C       3.98      17.26       8.11
C       5.12      16.46       8.03
H       6.92      17.81      10.59
O       1.66      18.81       8.37
C       7.37      15.77       8.87
C       6.18      16.66       8.93
C       6.08      17.67       9.91
C       4.95      18.46       9.98
O       2.66      20.19       9.82
H       4.86      19.25      10.74
H       3.15      17.11       7.42
H       5.20      15.68       7.28
