456

H       6.46      10.98       7.89
H      10.97       7.88       6.47
H       7.88       6.46      10.98
H       7.99      18.21      22.63
H       3.48      21.30      21.21
H       6.57      22.72      25.72
H      22.73      25.71       6.56
H      18.22      22.63       7.98
H      21.31      21.20       3.47
H      21.20       3.48      21.30
H      25.71       6.56      22.71
H      22.62       7.98      18.20
H      22.72      18.21      21.30
H      18.22      21.30      22.72
H      21.31      22.73      18.21
H      21.20      10.98       6.56
H      25.71       7.89       7.98
H      22.62       6.47       3.47
H       6.46       3.47      22.63
H      10.97       6.57      21.21
H       7.88       7.99      25.72
H       7.99      25.71       7.89
H       3.48      22.63       6.47
H       6.57      21.20      10.99
H       2.04      13.92      10.68
H       5.80      12.55       9.49
H       2.53       9.93       9.52
H      12.41      15.27      25.43
H       8.65      16.64      24.23
H      11.92      19.26      24.26
H      27.15      28.66       3.76
H      23.39      27.28       4.95
H      26.66      24.67       4.92
H      16.77       0.53      18.50
H      20.54       1.91      19.70
H      17.27       4.52      19.66
H      10.69       2.04      13.92
H       9.48       5.80      12.55
H       9.53       2.53       9.94
H      25.43      12.41      15.26
H      24.23       8.64      16.63
H      24.27      11.91      19.25
H       3.76      27.15      28.66
H       4.96      23.38      27.29
H       4.92      26.65      24.67
H      18.49      16.78       0.53
H      19.70      20.54       1.90
H      19.65      17.27       4.52
H      13.91      10.69       2.05
H      12.54       9.49       5.81
H       9.92       9.53       2.54
H      15.28      25.43      12.41
H      16.65      24.23       8.64
H      19.27      24.27      11.91
H      28.65       3.75      27.14
H      27.28       4.95      23.37
H      24.67       4.92      26.65
H       0.54      18.49      16.79
H       1.91      19.70      20.55
H       4.52      19.66      17.28
H      27.15      15.26      18.50
H      23.38      16.64      19.69
H      26.66      19.25      19.66
H      16.77      13.92       3.76
H      20.54      12.55       4.96
H      17.27       9.93       4.92
H       2.04       0.53      25.43
H       5.81       1.90      24.23
H       2.53       4.51      24.26
H      12.42      28.66      10.69
H       8.65      27.28       9.50
H      11.93      24.67       9.53
H      18.50      27.15      15.27
H      19.71      23.39      16.64
H      19.66      26.65      19.26
H       3.76      16.77      13.92
H       4.97      20.54      12.56
H       4.92      17.27       9.93
H      25.44       2.04       0.53
H      24.23       5.81       1.90
H      24.27       2.54       4.52
H      10.69      12.41      28.66
H       9.48       8.65      27.29
H       9.53      11.92      24.67
H      15.27      18.50      27.14
H      16.65      19.70      23.38
H      19.26      19.66      26.65
H      13.91       3.77      16.78
H      12.54       4.96      20.55
H       9.92       4.93      17.28
H       0.54      25.43       2.05
H       1.91      24.23       5.81
H       4.53      24.27       2.54
H      28.65      10.70      12.40
H      27.28       9.49       8.64
H      24.66       9.53      11.91
C       8.34       7.28       9.22
C       7.28       9.21       8.35
C       9.21       8.34       7.29
C       6.11      21.91      23.96
C       7.17      19.98      23.09
C       5.24      20.84      22.02
C      20.85      22.02       5.23
C      21.91      23.95       6.10
C      19.98      23.08       7.17
C      23.08       7.17      19.97
C      22.01       5.24      20.84
C      23.95       6.11      21.90
C      20.85      21.91      19.97
C      21.91      19.97      20.84
C      19.98      20.84      21.90
C      23.08       7.28       5.23
C      22.01       9.21       6.10
C      23.94       8.34       7.16
C       8.34       7.17      23.95
C       7.28       5.24      23.09
C       9.21       6.11      22.02
C       6.11      22.02       9.22
C       7.18      23.95       8.35
C       5.24      23.08       7.29
C       4.27      11.10       9.37
C       2.90      10.88       9.63
C       2.04      11.91      10.07
C       2.63      13.16      10.37
C       4.01      13.41      10.19
C       4.79      12.40       9.58
C       5.12      10.02       9.04
C       4.59      14.64      10.60
C       0.67      11.68      10.34
C      10.18      18.09      24.11
C      11.55      18.31      24.37
C      12.41      17.28      24.81
C      11.81      16.04      25.11
C      10.43      15.78      24.93
C       9.65      16.80      24.33
C       9.33      19.17      23.78
C       9.86      14.55      25.34
C      13.78      17.51      25.09
C      24.92      25.84       5.08
C      26.29      25.61       4.82
C      27.15      26.64       4.38
C      26.55      27.89       4.08
C      25.17      28.15       4.26
C      24.39      27.13       4.86
C      24.07      24.75       5.41
C      24.60      29.38       3.85
C      28.52      26.42       4.11
C      19.01       3.36      19.82
C      17.64       3.58      19.56
C      16.78       2.55      19.12
C      17.37       1.30      18.82
C      18.75       1.05      19.00
C      19.53       2.06      19.60
C      19.86       4.44      20.15
C      19.32      29.29      18.60
C      15.41       2.78      18.84
C       9.36       4.28      11.10
C       9.63       2.91      10.88
C      10.08       2.05      11.91
C      10.37       2.64      13.16
C      10.19       4.02      13.41
C       9.58       4.80      12.40
C       9.03       5.12      10.02
C      10.59       4.59      14.65
C      10.36       0.68      11.68
C      24.11      10.17      18.08
C      24.37      11.54      18.31
C      24.81      12.40      17.28
C      25.11      11.81      16.03
C      24.93      10.43      15.77
C      24.32       9.65      16.79
C      23.77       9.33      19.17
C      25.33       9.86      14.54
C      25.09      13.77      17.51
C       5.09      24.91      25.84
C       4.82      26.28      25.62
C       4.38      27.14      26.65
C       4.08      26.55      27.90
C       4.26      25.17      28.15
C       4.87      24.39      27.14
C       5.42      24.06      24.76
C       3.86      24.59      29.38
C       4.10      28.51      26.42
C      19.82      19.01       3.35
C      19.55      17.64       3.57
C      19.11      16.78       2.54
C      18.81      17.38       1.30
C      19.00      18.76       1.04
C      19.61      19.53       2.05
C      20.15      19.86       4.43
C      18.59      19.33      29.28
C      18.83      15.41       2.77
C      11.09       9.37       4.28
C      10.87       9.63       2.91
C      11.90      10.07       2.05
C      13.15      10.37       2.64
C      13.40      10.19       4.02
C      12.39       9.58       4.80
C      10.01       9.03       5.13
C      14.63      10.60       4.60
C      11.67      10.35       0.68
C      18.10      24.11      10.17
C      18.32      24.38      11.54
C      17.29      24.82      12.40
C      16.05      25.12      11.81
C      15.79      24.94      10.43
C      16.80      24.33       9.65
C      19.18      23.78       9.32
C      14.56      25.34       9.85
C      17.52      25.10      13.77
C      25.83       5.08      24.90
C      25.61       4.81      26.27
C      26.64       4.37      27.13
C      27.89       4.07      26.54
C      28.14       4.25      25.16
C      27.13       4.86      24.38
C      24.75       5.42      24.06
C      29.37       3.84      24.58
C      26.42       4.10      28.51
C       3.36      19.82      19.02
C       3.58      19.55      17.65
C       2.55      19.11      16.79
C       1.30      18.81      17.38
C       1.05      18.99      18.76
C       2.06      19.60      19.54
C       4.44      20.15      19.87
C      29.29      18.58      19.34
C       2.78      18.83      15.42
C      24.91      18.09      19.82
C      26.28      18.31      19.55
C      27.14      17.28      19.11
C      26.55      16.03      18.82
C      25.17      15.78      18.99
C      24.39      16.79      19.60
C      24.07      19.17      20.15
C      24.60      14.55      18.59
C      28.52      17.50      18.84
C      19.01      11.10       5.08
C      17.64      10.87       4.82
C      16.78      11.91       4.38
C      17.37      13.15       4.08
C      18.75      13.41       4.26
C      19.53      12.39       4.86
C      19.86      10.01       5.41
C      19.32      14.64       3.85
C      15.40      11.68       4.10
C       4.27       3.35      24.11
C       2.90       3.57      24.37
C       2.04       2.54      24.81
C       2.64       1.29      25.11
C       4.02       1.04      24.93
C       4.80       2.05      24.33
C       5.12       4.43      23.77
C       4.60      29.28      25.34
C       0.67       2.77      25.08
C      10.18      25.83       9.37
C      11.55      25.61       9.64
C      12.41      26.64      10.08
C      11.82      27.89      10.38
C      10.44      28.15      10.20
C       9.66      27.13       9.59
C       9.33      24.75       9.04
C       9.86      29.38      10.60
C      13.78      26.42      10.35
C      19.82      24.91      18.09
C      19.55      26.28      18.31
C      19.11      27.14      17.28
C      18.82      26.55      16.04
C      19.00      25.17      15.78
C      19.61      24.39      16.79
C      20.16      24.07      19.17
C      18.60      24.60      14.54
C      18.83      28.51      17.52
C       5.08      19.01      11.10
C       4.82      17.64      10.88
C       4.37      16.78      11.91
C       4.08      17.37      13.15
C       4.26      18.75      13.41
C       4.86      19.53      12.40
C       5.42      19.86      10.02
C       3.86      19.33      14.65
C       4.09      15.41      11.67
C      24.10       4.28       3.35
C      24.37       2.91       3.57
C      24.82       2.05       2.54
C      25.12       2.64       1.29
C      24.93       4.02       1.04
C      24.33       4.80       2.05
C      23.77       5.12       4.43
C      25.34       4.60      29.28
C      25.10       0.68       2.77
C       9.36      10.18      25.84
C       9.63      11.55      25.62
C      10.08      12.41      26.64
C      10.37      11.81      27.89
C      10.19      10.43      28.15
C       9.58       9.65      27.14
C       9.03       9.33      24.76
C      10.59       9.86      29.38
C      10.36      13.78      26.41
C      18.09      19.82      24.90
C      18.32      19.55      26.28
C      17.29      19.11      27.14
C      16.04      18.82      26.54
C      15.78      18.99      25.16
C      16.80      19.60      24.38
C      19.18      20.15      24.06
C      14.55      18.59      24.59
C      17.52      18.84      28.51
C      11.09       5.09      19.02
C      10.87       4.82      17.65
C      11.90       4.38      16.79
C      13.15       4.08      17.38
C      13.40       4.26      18.76
C      12.39       4.87      19.54
C      10.01       5.42      19.87
C      14.63       3.86      19.33
C      11.67       4.10      15.42
C       3.36      24.11       4.29
C       3.58      24.37       2.92
C       2.55      24.82       2.06
C       1.30      25.11       2.65
C       1.05      24.93       4.03
C       2.06      24.32       4.81
C       4.44      23.77       5.13
C      29.29      25.34       4.60
C       2.78      25.09       0.68
C      25.83       9.37      10.17
C      25.61       9.64      11.54
C      26.64      10.08      12.40
C      27.88      10.38      11.80
C      28.14      10.20      10.42
C      27.13       9.59       9.64
C      24.75       9.04       9.32
C      29.37      10.60       9.85
C      26.41      10.35      13.77
N       7.36       8.22       9.27
N       8.22       9.27       7.37
N       9.26       7.37       8.23
N       6.32      10.17       8.41
N      10.16       8.41       6.33
N       8.40       6.32      10.17
N       7.08      20.97      24.01
N       6.23      19.92      22.11
N       5.18      21.82      22.96
N       8.13      19.02      23.15
N       4.29      20.78      21.07
N       6.04      22.87      24.91
N      21.82      22.96       5.18
N      20.97      24.01       7.08
N      19.93      22.11       6.23
N      22.87      24.90       6.03
N      19.03      23.15       8.12
N      20.78      21.06       4.28
N      22.10       6.23      19.92
N      22.95       5.19      21.82
N      24.00       7.08      20.96
N      21.05       4.29      20.78
N      24.90       6.04      22.86
N      23.15       8.13      19.01
N      21.82      20.97      19.91
N      20.97      19.92      21.81
N      19.92      21.82      20.96
N      22.87      19.02      20.77
N      19.03      20.78      22.86
N      20.79      22.87      19.02
N      22.10       8.22       5.17
N      22.95       9.27       7.07
N      24.00       7.37       6.22
N      21.05      10.17       6.04
N      24.90       8.41       8.12
N      23.14       6.32       4.28
N       7.36       6.23      24.01
N       8.22       5.19      22.11
N       9.26       7.09      22.96
N       6.32       4.28      23.15
N      10.16       6.05      21.06
N       8.40       8.13      24.91
N       7.09      22.96       9.28
N       6.24      24.00       7.38
N       5.19      22.11       8.23
N       8.14      24.90       8.42
N       4.29      23.15       6.33
N       6.05      21.06      10.17
O       5.81      14.97      10.11
O       4.68       8.75       9.28
O      29.47      12.64      11.04
O       8.63      14.22      24.86
O       9.77      20.44      24.01
O      14.45      16.56      25.78
O      23.37       0.23       4.33
O      24.51      23.49       5.17
O      29.19      27.37       3.41
O      20.55      28.96      19.08
O      19.41       5.70      19.91
O      14.74       1.82      18.14
O      10.11       5.82      14.98
O       9.27       4.68       8.76
O      11.06       0.01      12.63
O      24.85       8.63      14.21
O      24.01       9.77      20.43
O      25.79      14.44      16.56
O       4.35      23.37       0.24
O       5.18      24.51      23.50
O       3.40      29.18      27.37
O      19.09      20.55      28.95
O      19.91      19.42       5.69
O      18.13      14.74       1.82
O      14.97      10.11       5.82
O       8.75       9.27       4.69
O      12.63      11.05       0.01
O      14.22      24.86       8.63
O      20.44      24.01       9.76
O      16.57      25.79      14.44
O       0.23       4.32      23.36
O      23.49       5.18      24.50
O      27.37       3.40      29.18
O      28.96      19.07      20.56
O       5.70      19.91      19.42
O       1.82      18.13      14.75
O      23.37      14.22      19.07
O      24.51      20.43      19.91
O      29.19      16.55      18.15
O      20.55      14.97       4.33
O      19.41       8.75       5.17
O      14.73      12.63       3.40
O       5.82      28.95      24.86
O       4.68       5.70      24.01
O       0.00       1.81      25.78
O       8.64       0.23      10.12
O       9.78      23.49       9.28
O      14.45      27.37      11.05
O      19.09      23.38      14.21
O      19.92      24.51      20.43
O      18.13      29.18      16.56
O       4.34      20.55      14.98
O       5.18      19.42       8.76
O       3.39      14.74      12.63
O      24.85       5.82      28.95
O      24.01       4.68       5.69
O      25.80       0.01       1.82
O      10.11       8.64       0.24
O       9.27       9.77      23.49
O      11.06      14.45      27.37
O      14.22      19.07      23.37
O      20.44      19.91      24.50
O      16.56      18.14      29.18
O      14.97       4.34      20.56
O       8.75       5.18      19.42
O      12.62       3.40      14.75
O      28.96      24.85       5.82
O       5.70      24.01       4.69
O       1.83      25.79       0.01
O       0.23      10.12       8.62
O      23.48       9.27       9.76
O      27.37      11.05      14.44
