41

Cu       8.80      15.83       8.36
O      13.92       8.45       7.02
O      12.83      12.81       7.19
C      14.83       6.91       5.44
C      15.26       6.67       4.13
C      16.45       4.80       4.75
C      16.08       4.96       6.09
C      15.25       6.02       6.44
C      14.01       8.11       5.83
C      11.61      14.31       5.75
C      10.88      14.78       6.84
C       9.69      16.29       5.53
C      10.39      15.89       4.40
C      11.36      14.88       4.49
C      12.54      13.17       6.03
C      12.72      10.05       5.08
C      13.71      11.24       5.03
C      11.42      16.68       9.45
C      10.16      15.75      11.15
H      14.98       7.34       3.31
H      17.10       3.98       4.44
H      14.90       6.15       7.46
H      11.05      14.36       7.83
H       8.91      17.05       5.49
H      10.19      16.36       3.44
H      11.91      14.59       3.59
H      13.55       8.59       3.84
H      12.78      12.85       4.00
H      11.96      10.18       4.31
H      12.24      10.01       6.06
H      14.35      11.13       4.15
H      14.34      11.25       5.93
C       6.47      15.18       9.90
C       7.56      17.12      10.60
N      16.05       5.64       3.77
N       9.93      15.73       6.76
N      13.39       8.79       4.83
N      13.01      12.51       4.93
N      10.46      15.81       9.82
H      16.43       4.25       6.84
N       7.40      16.13       9.66
