41

Cu       8.77       6.95       2.35
O      13.85      -0.40       3.71
O      12.82       3.96       3.51
C      11.36       7.83       1.25
C      10.11       6.90      -0.46
C      14.82      -1.92       5.28
C      15.27      -2.15       6.58
C      16.47      -4.02       5.94
C      16.08      -3.86       4.61
C      15.23      -2.80       4.27
C      13.98      -0.73       4.90
C      11.60       5.46       4.94
C      10.85       5.91       3.86
C       9.67       7.43       5.16
C      10.39       7.05       6.29
C      11.37       6.06       6.20
C      12.53       4.32       4.67
C      12.70       1.22       5.68
C      13.70       2.40       5.71
H      15.01      -1.48       7.40
H      17.13      -4.83       6.25
H      16.42      -4.56       3.85
H      14.87      -2.68       3.25
H      11.01       5.48       2.87
H       8.88       8.18       5.21
H      10.20       7.54       7.25
H      11.94       5.78       7.09
H      13.56      -0.25       6.90
H      12.78       4.04       6.70
H      11.97       1.34       6.49
H      12.18       1.18       4.72
H      14.33       2.31       6.60
H      14.32       2.38       4.81
N       7.36       7.25       1.05
C       6.42       6.31       0.82
N      10.41       6.95       0.88
N      16.08      -3.18       6.93
N       9.89       6.86       3.94
N      13.38      -0.05       5.91
N      12.99       3.67       5.78
C       7.51       8.25       0.12
