41

C       3.12      15.78      16.00
C       2.66      15.55      17.31
C       1.47      13.69      16.67
C       1.87      13.84      15.34
C       2.72      14.89      15.00
C       3.96      16.97      15.63
O       4.09      17.30      14.43
C       6.33      23.16      15.68
O       5.12      21.66      14.24
C       7.08      23.61      14.59
C       6.57      23.75      16.94
C       5.41      22.02      15.40
C       5.24      18.91      16.39
C       4.24      20.10      16.44
C       7.54      24.75      17.03
Cu       9.17      24.65      13.09
H       2.92      16.23      18.12
H       0.81      12.88      16.97
H       1.53      13.13      14.58
H       3.08      15.01      13.98
H       6.92      23.18      13.61
H       9.06      25.87      15.95
H       7.74      25.23      17.98
H       6.00      23.48      17.83
H       4.39      17.45      17.62
H       5.16      21.73      17.43
H       5.99      19.04      17.18
H       5.74      18.88      15.42
H       3.62      20.00      17.33
H       3.61      20.08      15.54
C      11.52      24.01      11.54
C      10.42      25.94      10.84
C       8.27      25.13      15.90
C       6.57      25.51      11.98
C       7.82      24.57      10.28
N       1.85      14.53      17.65
N       8.04      24.56      14.68
N       4.56      17.65      16.63
N       4.94      21.37      16.50
N      10.58      24.95      11.78
N       7.53      24.63      11.62
