30

H      11.51       2.95       8.97
H      10.40       2.59      11.17
H       7.91       5.30       9.04
H      11.02       5.57      14.19
H      10.01       6.77      10.19
H       8.87       2.93       5.57
C       8.61       4.65       8.51
C      10.73       3.97      12.79
C      10.31       2.88       7.19
C      11.09       2.92      13.78
C      10.63       3.34       8.47
C       6.95       4.58       6.65
C      10.76       5.32      13.17
C       9.13       3.31       6.56
C      11.21       1.87       6.55
C       8.28       4.19       7.23
C      10.42       3.64      11.47
C      10.12       4.63      10.53
C       9.78       4.23       9.14
C      10.68       7.75      12.64
C      10.18       5.98      10.91
C      10.51       6.32      12.23
O      11.11       3.24      15.02
O       6.95       5.34       5.63
O       5.93       4.13       7.26
O      10.67       1.06       5.73
O      10.83       8.66      11.78
O      12.45       1.86       6.87
O      11.41       1.76      13.35
O      10.70       8.03      13.91
