15

C       0.83       2.06       5.20
C       0.06       4.37       4.62
C      -0.44       0.53       6.37
H      -0.51      -0.46       6.82
H      -2.20       3.41       5.96
H       1.78       2.28       4.73
N       0.72       0.85       5.77
O      -2.82      -0.23       7.52
O      -3.68       1.88       7.28
O      -0.84       5.26       4.77
O       1.17       4.51       4.02
C      -1.52       1.41       6.44
C      -2.78       0.99       7.13
C      -1.39       2.69       5.88
C      -0.19       3.02       5.23
