20

Cd       5.50       8.89      13.67
Cd       9.48       6.41      10.77
C       6.48      11.04      14.97
C       3.72       6.29      14.50
C       4.49       7.23      16.27
C      10.45       4.26       9.47
C       7.70       9.00       9.94
C       8.46       8.07       8.17
C       8.09       6.93      13.46
C       4.12       8.37      10.98
N       4.43       7.36      14.90
N       8.40       7.94       9.54
O       5.96      10.15      15.71
O       6.50      10.96      13.69
O       9.93       5.15       8.73
O      10.47       4.34      10.75
O       7.30       7.68      12.81
O       8.94       6.13      12.93
O       3.33       7.62      11.63
O       4.97       9.16      11.51
