12

C       1.91      12.39       9.75
O       0.22      12.11      12.63
C      -0.09      12.08      13.87
Zn       0.39      10.39      11.47
O       0.35       8.45      10.80
O       2.27      10.08      12.32
C      -2.50       9.94      11.92
C       2.53       9.53      13.44
C       0.13       7.40      11.49
C       0.49      11.31       8.53
O      -1.65      10.48      11.13
N       1.01      11.37       9.78
