12

C      10.29       9.53      24.59
C       5.28       9.95      26.12
C       7.67      12.08      24.14
C       7.32       8.17      21.20
C       5.89       7.08      22.42
O       5.52       9.40      24.99
C       7.89       7.40      26.57
O       7.55       7.37      25.35
Zn       7.39       9.08      24.17
O       9.43       9.00      23.82
O       7.41      11.02      23.47
N       6.79       8.10      22.45
