15

C       7.82       3.47       0.85
C       9.19       3.24       1.17
C      10.07       4.30       1.44
C       9.55       5.58       1.37
C       8.19       5.82       1.06
C       7.31       4.77       0.80
C       7.71       7.25       0.95
O       6.50       7.45       0.60
O       8.57       8.16       1.19
H      11.12       4.11       1.66
H      10.20       6.44       1.56
H       6.26       4.96       0.56
N       9.38       1.89       1.12
N       8.23       1.33       0.77
N       7.25       2.24       0.61
