41

O      11.74       8.86       9.99
O      10.61      16.94       8.95
H       6.72      14.86       4.71
C       8.08      16.39       6.43
C       9.64      14.90       8.28
H       9.87      13.67      10.01
H      15.72      14.59       5.76
C      11.51      13.20       8.77
H      11.01      15.02       9.84
C       9.74      16.36       8.24
H       6.61      12.39       4.70
C      12.34      10.83       8.68
C       8.02      14.97       6.42
H      12.18      15.75       7.90
H       9.11      12.24       8.19
C       8.87      17.08       7.31
H      15.32      12.21       6.37
C      11.34      11.80       9.17
H       7.45      16.96       5.75
C      10.50      14.21       9.29
C       7.18      12.90       5.47
H      14.11      16.33       6.50
C       7.25      14.29       5.47
H      14.08      10.52       7.49
C      12.60      13.60       7.95
C      12.83      14.95       7.55
H       7.75      11.08       6.49
C       8.78      14.22       7.38
C       8.63      12.81       7.40
C      13.36      11.25       7.87
C      14.63      12.99       6.70
C      14.84      14.31       6.34
O      10.34      11.45       9.86
C      13.54      12.61       7.49
C      13.92      15.29       6.76
O       8.04      19.18       6.52
C      12.30       9.38       9.01
O      12.99       8.64       8.14
C       7.85      12.17       6.46
C       8.74      18.56       7.35
O       9.34      19.13       8.37
