11

H       6.03      14.72       6.73
H       6.58      19.50       4.63
C       6.40      16.81       6.39
C       6.30      18.73       5.33
H       7.70      15.13       6.26
C       6.84      15.46       6.84
N       5.38      17.51       6.97
H       7.12      15.48       7.90
N       6.98      17.52       5.39
H       4.61      19.49       6.57
C       5.33      18.73       6.30
