11

H       6.03       2.22      10.22
C       6.40       0.13      10.56
H       6.58      -2.56      12.32
C       6.30      -1.79      11.62
H       7.70       1.81      10.69
N       5.38      -0.57       9.98
C       6.84       1.48      10.11
H       7.12       1.46       9.05
N       6.98      -0.58      11.56
H       4.61      -2.55      10.38
C       5.33      -1.79      10.65
