11

H      12.33       6.57      14.39
H      10.92       6.72      19.18
C      11.63       6.29      15.16
C      10.12       6.83      18.43
N       9.98       5.38      16.38
H       9.25       6.25      18.76
N      11.57       6.96      16.38
H       9.84       7.89      18.41
H      10.37       4.62      14.39
C      10.65       5.32      15.16
C      10.56       6.38      17.08
