11

C      10.26       3.15       2.17
N       9.05       1.51       3.09
H       6.25       1.74       2.44
C       8.34       2.08       2.08
N       9.04       3.09       1.50
C      10.26       2.18       3.15
H      11.03       1.90       3.85
H       6.66       2.22       0.77
C       6.99       1.63       1.64
H       7.01       0.57       1.36
H      11.02       3.87       1.90
