11

H      15.60       7.00      16.38
N      13.86       9.03      15.44
H      14.51       6.24      15.21
N      15.44       9.03      13.86
C      14.87       8.33      14.87
H      16.18       6.65      14.73
H      13.08      11.01      15.04
C      13.80      10.25      14.77
C      15.31       6.98      15.32
H      15.04      11.01      13.08
C      14.77      10.25      13.80
