13

O       9.71       1.43       9.60
O      11.80       1.74       8.80
O       9.21       4.83      14.25
O      11.35       5.32      14.85
S       9.87       3.31      11.84
H      13.31       3.22      10.60
H      13.10       4.66      12.84
C      11.14       2.89      10.75
C      12.39       3.41      11.15
C      12.28       4.16      12.33
C      10.97       4.19      12.83
C      10.86       1.97       9.62
C      10.47       4.83      14.07
