13

S      -0.34       2.31       3.59
H      -3.75       2.32       2.28
C      -2.84       2.15       2.85
C      -2.75       1.41       4.03
C      -1.60       2.70       2.48
C      -1.31       3.61       1.35
C      -1.44       1.41       4.55
C      -0.95       0.76       5.80
H      -3.57       0.90       4.53
O      -0.16       4.15       1.32
O      -2.26       3.84       0.52
O       0.31       0.74       5.97
O      -1.84       0.30       6.58
