13

C       4.03       6.39      14.00
C       2.85       7.12      14.19
C       4.37       8.49      10.89
C       1.92       7.04      15.33
O       5.18       7.98      10.06
O       3.88       9.66      10.72
O       0.99       7.92      15.44
S       2.51       8.22      12.91
O       2.02       6.08      16.16
H       5.60       6.31      12.45
H       4.40       5.67      14.72
C       3.97       7.74      12.10
C       4.67       6.74      12.80
