52

Ho       9.48       7.73       9.37
Ho       9.38       9.60      12.98
Cu       6.70      13.37      11.20
Cu       5.99      11.39       5.59
C       7.43      10.84       8.04
C       7.52      11.23       9.38
C       7.96       9.72       7.20
C       8.08      10.66      10.61
C       4.10       9.09       6.09
C      13.04       9.10       7.65
C       3.64      11.04       7.29
C      11.89       8.46       8.38
C       8.64      15.14       9.75
C       5.68       6.02      10.24
C       9.54      14.05      11.60
C       7.03       6.55       9.86
C      11.42       6.53      14.34
C      11.33       6.13      13.00
C      10.87       7.65      15.19
C      10.78       6.69      11.77
C       7.90      13.67       5.10
C       5.83       8.26      14.76
C       8.36      11.73       3.90
C       6.98       8.89      14.03
C       4.75      11.60      12.66
C      13.17      11.35      12.17
C       3.86      12.70      10.81
C      11.82      10.81      12.53
N       6.66      11.77       7.44
N       6.29      12.72       8.31
N       6.81      12.39       9.49
N       4.40      10.37       6.40
N       8.49      14.31      10.81
N      12.18       5.59      14.95
N      12.55       4.64      14.09
N      12.04       4.96      12.91
N       7.60      12.39       4.79
N       4.91      12.43      11.60
O       8.95       9.04       7.67
O       8.71       9.54      10.59
O       7.92      11.26      11.72
O      11.40       7.35       7.96
O      11.43       9.07       9.40
O       8.07       6.08      10.44
O       7.11       7.44       8.96
O       9.89       8.33      14.73
O      10.15       7.81      11.77
O      10.94       6.07      10.66
O       7.49       9.99      14.44
O       7.42       8.27      13.00
O      10.78      11.28      11.94
O      11.73       9.92      13.43
