28

C       3.94      10.21       4.50
C       5.32      12.04       5.75
C       4.13      12.53       3.71
C       6.91      11.05       8.77
C       8.13      13.25       9.12
H       4.13      14.58       3.04
H       5.47      15.38       5.01
N       6.16      11.72       7.80
N       5.90      11.15       6.70
H       8.91       9.45      11.70
H       3.50      12.18       2.90
H       9.29      11.84      11.06
H       7.21       8.12      10.46
H       5.95       9.12       8.57
C       8.55      11.24      10.54
H       6.25      13.72       6.69
C       7.40       9.15      10.18
O       2.77      10.20       4.03
O       7.97      13.63       7.94
C       7.83      11.84       9.51
C       5.20      14.33       4.90
O       8.65      14.02      10.04
O       4.64       9.18       4.80
C       4.53      11.59       4.67
C       8.34       9.90      10.89
C       5.63      13.41       5.86
C       6.69       9.71       9.12
C       4.47      13.88       3.80
