28

C      -1.67      -5.65      10.40
C      -1.33      -4.30      10.48
C      -4.12      -2.85       5.41
H      -6.52      -3.65       3.13
H      -3.46      -5.53       7.51
H      -4.41       0.07       3.70
H      -2.66      -7.16       9.20
N      -3.37      -3.52       6.38
N      -3.11      -2.94       7.48
H      -6.12      -1.27       2.48
C      -5.34      -5.06       5.07
C      -2.40      -6.11       9.30
C      -1.15      -1.99       9.67
C      -2.52      -3.83       8.44
H      -0.71      -3.94      11.29
C      -1.73      -3.37       9.51
H      -3.15      -0.93       5.59
H      -1.33      -6.34      11.17
O       0.02      -1.97      10.14
O      -1.84      -0.96       9.36
O      -5.85      -5.83       4.15
O      -5.20      -5.43       6.26
C      -5.04      -3.64       4.68
C      -5.56      -1.71       3.29
C      -3.90      -1.51       5.06
C      -2.83      -5.21       8.33
C      -5.77      -3.05       3.65
C      -4.61      -0.96       3.99
