20

Cu       3.51       4.97       5.82
Cu       6.25       4.97       5.82
C       4.81       2.43       5.80
C      -0.71       4.11       5.01
C       0.71       5.91       6.53
C      -0.71       5.76       6.69
C       0.73       4.16       4.96
C       4.94       7.52       5.83
C       4.93       5.14       3.31
C       4.82       4.81       8.33
N       1.45       4.97       5.82
N      -1.43       4.97       5.82
O       3.66       3.04       5.82
O       6.10       6.91       5.82
O       3.78       6.91       5.82
O       5.97       3.04       5.82
O       3.77       5.10       3.93
O       5.98       4.85       7.72
O       3.67       4.85       7.72
O       6.09       5.10       3.93
