528

C      11.25      23.46       7.45
C      12.49      22.58       7.84
C       9.97      22.61       7.79
C       9.92      21.24       7.02
C      11.22      20.45       7.42
C      12.55      21.21       7.09
C      12.54      21.50       5.55
C      11.30      22.34       5.07
C      10.02      21.52       5.47
C      11.31      23.69       5.89
C      33.63      13.58      31.12
C      34.87      14.47      30.73
C      32.34      14.43      30.78
C      32.29      15.81      31.55
C      33.59      16.60      31.15
C      34.92      15.84      31.48
C      34.91      15.55      33.02
C      33.67      14.70      33.50
C      32.39      15.52      33.10
C      33.68      13.36      32.68
C      22.44       6.68      14.34
C      23.68       7.07      15.23
C      21.15       7.02      15.19
C      21.10       6.25      16.57
C      22.40       6.65      17.36
C      23.74       6.33      16.60
C      23.72       4.79      16.31
C      22.49       4.31      15.46
C      21.20       4.71      16.28
C      22.50       5.12      14.12
C      22.44      30.36      24.22
C      23.68      29.97      23.34
C      21.15      30.02      23.37
C      21.10      30.79      22.00
C      22.40      30.39      21.21
C      23.74      30.72      21.97
C      23.72      32.25      22.26
C      22.49      32.74      23.10
C      21.20      32.34      22.29
C      22.50      31.92      24.45
C      33.51      30.41      14.39
C      32.26      30.07      15.28
C      34.79      30.01      15.22
C      34.89      30.78      16.59
C      33.58      30.44      17.40
C      32.24      30.82      16.65
C      32.30      32.36      16.38
C      33.55      32.79      15.54
C      34.85      32.33      16.30
C      33.51      31.97      14.19
C      11.14       6.63      24.17
C       9.89       6.97      23.28
C      12.42       7.03      23.34
C      12.52       6.26      21.97
C      11.21       6.60      21.17
C       9.87       6.22      21.91
C       9.93       4.68      22.19
C      11.19       4.25      23.03
C      12.48       4.71      22.26
C      11.14       5.07      24.38
C      22.33      23.41      31.18
C      21.08      22.52      30.84
C      23.61      22.58      30.78
C      23.71      21.21      31.55
C      22.39      20.41      31.20
C      21.06      21.15      31.59
C      21.11      21.43      33.13
C      22.37      22.26      33.55
C      23.67      21.50      33.09
C      22.33      23.62      32.74
C      22.33      13.63       7.39
C      21.08      14.52       7.74
C      23.61      14.46       7.79
C      23.70      15.83       7.02
C      22.39      16.64       7.37
C      21.06      15.89       6.99
C      21.11      15.62       5.44
C      22.37      14.78       5.02
C      23.66      15.54       5.47
C      22.33      13.43       5.83
C      22.37      22.43      35.07
C      22.28      23.68      35.74
C      22.32      22.65      37.90
C      22.39      21.37      37.31
C      22.41      21.29      35.91
C      11.19      22.82       0.73
C      10.17      23.42       1.51
C      10.26      23.31       2.92
C      11.32      22.60       3.57
C      12.33      22.12       2.70
C      22.36      14.62       3.50
C      22.27      13.37       2.83
C      22.31      14.39       0.67
C      22.38      15.68       1.26
C      22.40      15.76       2.67
C      33.55      14.22      37.84
C      32.54      13.62      37.06
C      32.63      13.74      35.65
C      33.69      14.44      35.00
C      34.70      14.92      35.87
C      33.55      34.30      15.38
C      33.46      34.98      14.13
C      33.49      37.14      15.16
C      33.57      36.55      16.44
C      33.59      35.14      16.52
C      33.55      38.54      14.99
C      21.35       0.75      14.39
C      21.45       2.16      14.50
C      22.50       2.80      15.20
C      23.52       1.94      15.69
C      11.18       2.74      23.19
C      11.09       2.06      24.44
C      22.32      38.47      23.42
C      11.20       0.49      22.13
C      11.22       1.90      22.05
C      22.37      37.07      23.59
C      21.35      36.29      24.19
C      21.45      34.88      24.07
C      22.50      34.24      23.37
C      23.52      35.10      22.89
C      13.83      20.46       7.45
C      13.86      19.15       7.98
C      16.25      18.98       7.75
C      16.31      20.32       7.30
C      15.10      21.04       7.17
C      17.36      18.11       7.72
C      17.30      16.80       7.17
C      18.51      16.09       7.00
C      19.78      16.64       7.32
C      19.75      17.92       7.93
C      36.20      16.58      31.13
C      36.23      17.89      30.60
C      16.25      18.06      30.82
C      16.31      16.73      31.28
C      15.10      16.01      31.41
C      17.37      18.94      30.85
C      17.30      20.24      31.40
C      18.51      20.95      31.58
C      19.78      20.40      31.25
C      19.75      19.12      30.65
C      25.02       6.68      17.34
C      25.05       7.21      18.65
C      27.43       6.99      18.82
C      27.50       6.53      17.48
C      26.29       6.40      16.77
C      28.55       6.95      19.70
C      28.49       6.40      21.00
C      29.70       6.23      21.71
C       8.60       6.56      21.16
C       8.56       7.16      19.88
C      25.02      30.36      21.23
C      25.05      29.83      19.91
C      27.43      30.05      19.74
C      27.50      30.51      21.08
C      26.29      30.64      21.80
C      28.55      30.09      18.87
C      28.48      30.63      17.56
C      29.70      30.81      16.86
C      30.96      30.48      17.40
C      30.93      29.88      18.69
C      30.99      16.56      31.27
C      30.94      17.88      30.75
C      28.56      18.08      31.05
C      28.51      16.73      31.51
C      29.73      16.01      31.60
C      27.43      18.95      31.04
C      27.48      20.31      31.45
C      26.27      21.04      31.53
C      25.00      20.47      31.22
C      25.05      19.14      30.74
C       8.62      20.48       7.30
C       8.57      19.16       7.82
C      28.56      18.97       7.52
C      28.51      20.31       7.05
C      29.73      21.04       6.97
C      27.43      18.09       7.53
C      27.48      16.74       7.12
C      26.27      16.01       7.04
C      25.00      16.58       7.34
C      25.05      17.91       7.83
C      19.80      30.51      21.24
C      19.75      29.99      19.92
C      17.37      30.29      19.73
C      17.33      30.75      21.07
C      18.54      30.84      21.80
C      16.24      30.27      18.85
C      16.29      30.69      17.50
C      15.08      30.76      16.77
C      36.19      30.46      17.34
C      36.24      29.98      18.67
C      19.80       6.54      17.32
C      19.75       7.06      18.64
C      17.37       6.75      18.84
C      17.33       6.29      17.49
C      18.54       6.20      16.77
C      16.24       6.77      19.71
C      16.29       6.35      21.07
C      15.08       6.28      21.80
C      13.82       6.58      21.23
C      13.87       7.06      19.90
C      11.25      24.80       8.17
C      12.29      25.24       9.03
C      11.18      27.27       9.60
C      32.47      26.94       8.74
C      10.17      25.72       8.02
C      33.51      28.28      10.58
C      12.23      29.12      10.90
C      12.18      29.84      12.12
C      33.48      29.70      13.04
C      32.42      28.86      12.62
C      33.62      12.24      30.40
C      12.29      11.81      29.53
C      33.55       9.78      28.97
C      32.47      10.11      29.82
C      32.55      11.32      30.55
C      11.14       8.77      27.98
C      12.23       7.93      27.66
C      12.18       7.20      26.45
C      11.11       7.34      25.52
C      10.05       8.18      25.94
C      22.43       7.41      13.00
C      23.48       8.27      12.57
C      22.37       8.83      10.53
C      21.29       7.98      10.86
C      21.36       7.25      12.08
C      22.33       9.82       9.53
C      23.42      10.14       8.69
C      23.37      11.36       7.96
C      22.30      12.28       8.10
C      21.24      11.86       8.95
C      22.43      29.63      25.57
C      23.47      28.77      26.00
C      22.37      28.21      28.03
C      21.29      29.06      27.70
C      21.36      29.79      26.48
C      22.32      27.23      29.04
C      23.42      26.91      29.88
C      23.37      25.69      30.61
C      22.30      24.76      30.47
C      21.24      25.19      29.62
H       9.08      23.19       7.53
H       9.92      22.43       8.86
H      11.19      20.23       8.49
H      11.23      19.49       6.89
H      12.49      22.38       8.92
H      13.40      23.14       7.61
H      12.56      20.54       5.03
H      13.44      22.04       5.27
H      10.01      20.58       4.92
H       9.14      22.08       5.15
H      12.21      24.26       5.63
H      10.46      24.30       5.58
H      31.45      13.85      31.03
H      32.30      14.62      29.70
H      33.56      16.81      30.08
H      33.60      17.56      31.68
H      34.86      14.66      29.65
H      13.40      13.90      30.96
H      34.93      16.51      33.55
H      35.81      15.00      33.30
H      32.37      16.47      33.65
H      31.51      14.96      33.42
H      34.58      12.78      32.94
H      32.83      12.75      32.99
H      20.26       6.77      14.61
H      21.11       8.10      15.37
H      22.37       7.73      17.57
H      22.41       6.12      18.32
H      23.68       8.15      15.42
H      24.58       6.84      14.66
H      23.75       4.26      17.27
H      24.63       4.51      15.76
H      21.19       4.16      17.23
H      20.32       4.38      15.72
H      23.40       4.87      13.54
H      21.64       4.82      13.51
H      20.26      30.27      23.96
H      21.11      28.94      23.19
H      22.37      29.32      20.99
H      22.41      30.92      20.25
H      23.68      28.89      23.14
H      24.58      30.20      23.90
H      23.75      32.78      21.30
H      24.63      32.53      22.81
H      21.19      32.89      21.34
H      20.32      32.66      22.84
H      23.40      32.17      25.02
H      21.64      32.22      25.06
H      13.32      30.22      14.63
H      34.79      28.94      15.41
H      33.57      29.37      17.61
H      33.60      30.97      18.36
H      32.23      28.99      15.48
H      31.36      30.33      14.72
H      32.28      32.87      17.35
H      31.41      32.70      15.84
H      34.94      32.85      17.26
H      35.71      32.64      15.71
H      32.62      32.25      13.62
H      34.38      32.26      13.58
H      13.32       6.82      23.93
H      12.42       8.11      23.16
H      11.20       7.67      20.95
H      11.23       6.07      20.21
H       9.86       8.05      23.09
H       8.99       6.71      23.84
H       9.91       4.17      21.22
H       9.04       4.34      22.73
H      12.57       4.19      21.31
H      13.35       4.41      22.86
H      10.25       4.79      24.94
H      12.01       4.78      24.98
H      24.50      23.17      30.99
H      23.61      22.40      29.70
H      22.39      20.19      30.13
H      22.41      19.45      31.74
H      21.04      22.33      29.76
H      20.18      23.08      31.10
H      21.09      20.46      33.64
H      20.23      21.97      33.47
H      23.76      20.54      33.61
H      24.53      22.10      33.40
H      21.43      24.18      33.02
H      23.19      24.22      33.03
H      24.50      13.87       7.58
H      23.61      14.65       8.87
H      22.39      16.85       8.44
H      22.41      17.59       6.83
H      21.04      14.71       8.81
H      20.18      13.96       7.47
H      21.09      16.59       4.93
H      20.22      15.07       5.11
H      23.75      16.50       4.96
H      24.53      14.94       5.17
H      21.43      12.86       5.56
H      23.19      12.82       5.54
H      22.45      20.35      35.50
H       9.50      23.70       3.48
H      13.15      21.61       3.03
H      22.23      24.56      35.24
H      22.45      16.69       3.07
H      31.87      13.35      35.09
H      35.52      15.43      35.54
H      22.23      12.49       3.33
H      33.64      34.73      17.46
H      20.68       2.72      14.11
H      24.33       2.27      16.19
H      33.41      34.47      13.25
H      11.27       2.31      21.11
H      20.68      34.32      24.46
H      24.33      34.77      22.38
H      11.05       2.57      25.32
H      15.16      21.98       6.78
H      18.45      15.17       6.56
H      20.60      18.41       8.20
H      13.01      18.65       8.22
H      15.16      15.07      31.79
H      18.45      21.87      32.01
H      20.60      18.63      30.37
H      35.38      18.40      30.35
H      26.35       6.01      15.83
H      29.64       5.79      22.63
H       9.41       7.44      19.39
H      24.20       7.45      19.16
H      26.35      31.03      22.74
H      29.64      31.24      15.93
H      31.78      29.60      19.17
H      24.20      29.59      19.41
H      29.68      15.06      31.98
H      26.32      21.99      31.88
H      24.21      18.62      30.48
H      31.77      18.39      30.46
H      29.68      21.98       6.59
H      26.31      15.05       6.68
H      24.21      18.42       8.09
H       9.40      18.66       8.11
H      18.49      31.22      22.75
H      15.13      31.12      15.81
H      35.39      29.72      19.18
H      20.59      29.70      19.42
H      18.49       5.82      15.82
H      15.13       5.92      22.75
H      13.02       7.32      19.38
H      20.59       7.34      19.15
H      31.76      25.49       7.40
H      12.97      30.45      12.34
H      31.60      28.67      13.19
H      13.11      24.67       9.24
H      31.77      11.55      31.17
H      12.97       6.60      26.22
H      31.60       8.37      25.37
H      13.12      12.37      29.34
H      20.58       6.64      12.31
H      24.16      11.58       7.36
H      20.42      12.43       9.14
H      24.30       8.47      13.13
H      20.58      30.40      26.25
H      24.16      25.46      31.21
H      20.42      24.61      29.43
H      24.30      28.57      25.43
N      22.26      23.75      37.10
N      12.22      22.22       1.36
N       9.07      24.04       0.87
N      22.39      20.21      38.12
N      22.26      13.30       1.47
N      34.58      14.83      37.21
N      31.43      13.01      37.70
N      22.38      16.84       0.45
N      33.44      36.33      14.06
N      23.40       0.60      15.59
N      20.25       0.11      13.77
N      33.57      37.36      17.61
N      11.08       0.71      24.51
N      23.40      36.44      22.98
N      20.25      36.93      24.80
N      22.39      38.25      20.97
N      15.03      18.47       8.08
N      18.58      18.59       8.07
N      16.07      16.26       6.73
N      17.54      20.89       6.88
N      15.03      18.57      30.49
N      18.58      18.45      30.50
N      16.07      20.79      31.85
N      17.54      16.15      31.69
N      26.22       7.32      19.33
N      29.77       7.31      19.21
N      27.26       5.96      21.55
N      28.73       6.12      16.91
N      26.21      29.73      19.24
N      29.77      29.73      19.35
N      27.26      31.08      17.02
N      28.73      30.92      21.65
N      29.77      18.57      30.68
N      26.22      18.45      30.69
N      28.70      20.89      31.87
N      27.29      16.17      31.96
N      29.77      18.48       7.89
N      26.22      18.60       7.88
N      28.70      16.16       6.70
N      27.29      20.87       6.61
N      18.58      29.92      19.24
N      15.03      29.93      19.36
N      17.52      31.11      16.92
N      16.11      31.20      21.64
N      18.58       7.12      19.33
N      15.03       7.12      19.21
N      17.52       5.93      21.65
N      16.11       5.84      16.93
N      12.21      26.40       9.71
N      32.49      28.18      11.46
N      13.33      29.21      10.01
N      31.37      27.82       8.63
N      12.21      10.65      28.86
N      32.49       8.87      27.10
N      13.33       7.84      28.55
N      31.37       9.23      29.93
N      23.40       8.94      11.40
N      21.30      10.70       9.63
N      24.52       9.25       8.60
N      20.19       7.87       9.99
N      23.39      28.09      27.16
N      21.30      26.35      28.94
N      24.52      27.79      29.97
N      20.18      29.17      28.58
O       8.97      25.24       1.21
O      23.43      19.52      37.94
O      21.38      19.49      37.90
O       7.99      23.45       1.16
O      31.34      11.80      37.37
O      23.42      17.53       0.63
O      21.38      17.56       0.68
O      30.36      13.59      37.41
O      20.15       0.44      12.56
O      34.61      37.17      18.29
O      32.57      37.13      18.33
O      19.17       0.40      14.35
O      20.15      36.60      26.01
O      23.43      38.43      20.28
O      21.38      38.47      20.25
O      19.18      36.65      24.22
O      15.80      15.18       7.32
O      17.81      21.93       7.54
O      17.53      21.18       5.66
O      16.08      16.04       5.49
O      15.80      21.86      31.25
O      17.82      15.12      31.03
O      17.53      15.86      32.92
O      16.08      21.00      33.09
O      26.98       6.55      22.62
O       6.63       6.78      15.88
O       6.35       4.89      16.62
O      27.26       4.72      21.76
O      26.98      30.48      15.95
O      29.00      30.26      22.69
O      28.72      32.15      21.95
O      27.26      32.32      16.80
O      28.99      21.90      31.18
O      27.00      15.14      31.30
O      27.34      15.87      33.18
O      28.67      21.22      33.08
O       6.62      15.15       7.39
O      26.99      21.90       7.26
O      27.34      21.17       5.39
O       6.29      15.82       5.49
O      17.81      30.42      15.91
O      15.81      30.54      22.66
O      16.15      32.42      21.93
O      17.48      32.32      16.58
O      17.81       6.62      22.66
O      15.81       6.50      15.90
O      16.15       4.62      16.63
O      17.48       4.72      21.98
O      14.39      28.83      10.57
O      30.30      27.26       8.99
O      31.23      28.23       7.46
O      13.49      30.38       9.60
O      14.40       8.21      27.99
O      30.31       9.79      29.57
O      31.23       8.82      31.10
O      13.49       6.67      28.96
O      25.58       9.81       8.97
O      19.12       8.24      10.55
O      20.04       6.70       9.58
O      24.67       8.84       7.42
O      25.58      27.23      29.59
O      19.12      28.81      28.02
O      20.04      30.35      28.99
O      24.68      28.20      31.14
