140

Ni       0.00       3.83       3.83
Ni       4.23      11.28      11.28
Ni       2.12       3.74      11.37
Ni       6.35      11.37       3.74
H       1.65       4.21       1.16
H       0.75       4.04      13.95
H       6.46       3.95      12.80
H       3.58       3.32       0.83
H       5.37       3.46       2.58
H       5.88      10.90      13.95
H       4.98      11.07       1.16
H       2.23      11.16       2.31
H       7.81      11.79      14.28
H       1.14      11.65      12.53
H       3.77       6.41      11.76
H       2.86       8.72      11.60
H       0.12       9.86      11.50
H       5.70       6.72      10.88
H       7.49       4.97      11.02
H       8.01       8.70       3.35
H       7.10       6.39       3.51
H       4.35       5.25       3.61
H       1.47       8.39       4.23
H       3.26      10.14       4.09
H       0.46       3.35       8.70
H       1.37       3.51       6.39
H       4.12       3.61       5.25
H       7.00       4.23       8.39
H       5.21       4.09      10.14
H       4.69      11.76       6.41
H       5.60      11.60       8.72
H       8.35      11.50       9.86
H       2.77      10.88       6.72
H       0.97      11.02       4.97
H       6.81       1.16       4.21
H       7.72      13.95       4.04
H       2.00      12.80       3.95
H       4.89       0.83       3.32
H       3.10       2.58       3.46
H       2.58      13.95      10.90
H       3.48       1.16      11.07
H       6.23       2.31      11.16
H       0.65      14.28      11.79
H       7.33      12.53      11.65
C       3.82       3.66      13.27
C       4.91       3.66      14.28
C       4.61       3.50       0.55
C       5.60       3.57       1.53
C       6.92       3.78       1.11
C       7.22       3.88      14.84
C       6.23       3.84      13.86
C       0.61       4.07       0.93
C       8.05      11.45       1.83
C       0.67      11.46       0.82
C       0.38      11.61      14.56
C       1.36      11.54      13.58
C       2.69      11.33      14.00
C       2.98      11.23       0.27
C       2.00      11.27       1.25
C       4.84      11.04      14.18
C       5.94       9.39      11.22
C       7.03       8.38      11.21
C       6.73       7.01      11.06
C       7.72       6.03      11.12
C       0.57       6.45      11.33
C       0.87       7.83      11.44
C       8.35       8.81      11.39
C       2.73       6.64      11.63
C       1.70       5.72       3.89
C       2.79       6.73       3.90
C       2.50       8.10       4.05
C       3.48       9.08       3.99
C       4.81       8.66       3.78
C       5.10       7.28       3.67
C       4.12       6.30       3.72
C       6.96       8.47       3.48
C       6.76       3.89       5.72
C       5.67       3.90       6.73
C       5.97       4.05       8.10
C       4.98       3.99       9.08
C       3.66       3.78       8.66
C       3.36       3.67       7.28
C       4.35       3.72       6.30
C       1.51       3.48       8.47
C       2.53      11.22       9.39
C       1.44      11.21       8.38
C       1.74      11.06       7.01
C       0.75      11.12       6.03
C       7.89      11.33       6.45
C       7.60      11.44       7.83
C       0.12      11.39       8.81
C       5.74      11.63       6.64
C       4.65      13.28       3.66
C       3.56      14.29       3.65
C       3.86       0.55       3.50
C       2.87       1.53       3.57
C       1.55       1.11       3.78
C       1.25      14.84       3.88
C       2.24      13.86       3.83
C       7.86       0.93       4.07
C       0.42       1.84      11.45
C       7.79       0.83      11.46
C       8.09      14.56      11.61
C       7.10      13.58      11.54
C       5.78      14.00      11.33
C       5.48       0.27      11.23
C       6.47       1.25      11.27
C       3.63      14.19      11.04
N       8.11       3.91       1.83
N       0.13       4.06      14.77
N       3.87      11.20      13.28
N       4.36      11.05       0.34
N       1.76       5.73      11.47
N       2.25       7.90      11.62
N       5.99       9.38       3.64
N       6.48       7.21       3.49
N       2.47       3.64       9.38
N       1.99       3.49       7.21
N       6.70      11.47       5.73
N       6.22      11.62       7.90
N       0.36       1.83       3.91
N       8.34      14.77       4.06
N       4.59      13.28      11.20
N       4.11       0.34      11.05
O       2.59       3.64      13.63
O       4.12       3.71      12.02
O       6.82      11.47       1.48
O       8.35      11.40       3.09
O       4.71       9.04      11.20
O       6.25      10.65      11.27
O       0.48       6.07       3.91
O       2.01       4.46       3.84
O       7.99       3.91       6.07
O       6.45       3.84       4.46
O       3.76      11.20       9.04
O       2.22      11.27      10.65
O       5.88      13.63       3.64
O       4.35      12.02       3.71
O       1.64       1.48      11.47
O       0.12       3.09      11.40
