84

Cu       5.96       9.70       3.49
Cu       9.75      14.28       3.47
Cu       1.82       9.65      -3.48
Cu      -2.06      14.23      -3.50
Cu       5.54      13.91       4.37
Cu      10.16      10.07       4.38
Cu       2.15      13.85      -4.38
Cu      -2.39      10.00      -4.39
Cu       3.88       9.37       0.00
Cu      11.81      14.56      -0.02
Cu       5.20      15.99       7.86
Cu      10.46       8.02       7.87
C       8.59       9.66       2.52
C       7.73       9.59       1.35
C       6.59       9.49      -0.54
C       5.95       9.32      -1.89
C       7.11      14.29       2.51
C       7.97      14.35       1.33
C       9.11      14.43      -0.56
C       9.75      14.57      -1.91
C      -0.82       9.63      -2.52
C       0.04       9.57      -1.35
C       1.18       9.50       0.54
C       1.82       9.36       1.89
C       0.58      14.26      -2.53
C      15.66      14.34      -1.36
C      14.52      14.44       0.53
C      13.87      14.60       1.87
C       5.54      11.28       5.35
C       5.46      12.14       6.52
C       5.35      13.28       8.40
C       5.19      13.92       9.75
C      10.16      12.72       5.34
C      10.23      11.86       6.52
C      10.31      10.73       8.41
C      10.45      10.09       9.76
C       2.22      11.21      -5.35
C      10.29       4.17       9.22
C      10.37       5.31       7.33
C      10.52       5.96       5.98
C       5.43      20.70      10.38
C       5.37      19.84       9.21
C       5.29      18.70       7.33
C       5.16      18.06       5.98
N       6.40       9.50       1.65
N       5.72       9.45       0.51
N       9.30      14.46       1.63
N       9.97      14.50       0.49
N       1.37       9.47      -1.64
N       2.05       9.43      -0.50
N      14.33      14.43      -1.66
N      13.65      14.48      -0.52
N       5.35      13.47       6.21
N       5.29      14.15       7.36
N      10.34      10.53       6.22
N      10.39       9.86       7.36
N      10.36       5.51       9.52
N      10.40       6.18       8.38
N       5.27      18.51       9.51
N       5.23      17.83       8.37
O       8.00       9.66       3.68
O       9.86       9.76       2.47
O       4.64       9.29      -1.85
O       7.70      14.27       3.66
O       5.84      14.21       2.46
O      11.06      14.59      -1.87
O      -0.22       9.63      -3.68
O      -2.09       9.70      -2.48
O       3.13       9.32       1.86
O      -0.01      14.25      -3.69
O       1.85      14.16      -2.47
O      12.56      14.63       1.84
O       5.53      11.86       4.19
O       5.64      10.00       5.40
O       5.14      15.23       9.71
O      10.16      12.12       4.18
O      10.08      13.99       5.38
O      10.50       8.78       9.72
O       2.21      11.80      -4.19
O       2.14       9.94      -5.39
O      10.55       7.27       6.02
O      -2.41      12.06      -4.20
O       5.49      21.98      10.34
O       5.15      16.75       6.02
