13

H       1.26       2.30      12.67
H       1.64       4.05      10.71
S       4.77       2.45      11.67
C       3.58       0.94      13.68
C       3.41       1.91      12.59
C       2.22       2.53      12.21
C       2.42       3.45      11.17
O       4.69       0.31      13.79
O       2.59       0.80      14.49
C       3.76       3.53      10.78
C       4.30       4.41       9.75
O       3.50       5.19       9.12
O       5.56       4.39       9.53
