252

C       0.14       3.91      10.19
C       1.21       4.23       9.31
C       0.98       4.82       8.04
C      23.72       5.04       7.65
C      22.64       4.55       8.42
C      22.92       3.99       9.68
C       2.02       5.16       7.15
C      21.32       4.53       7.94
C       0.41       3.63      11.56
C      23.81      18.96      10.19
C      22.74      18.63       9.31
C      22.98      18.05       8.04
C       0.23      17.82       7.65
C       1.31      18.31       8.42
C       1.03      18.88       9.68
C      21.93      17.71       7.15
C       2.63      18.33       7.94
C      23.54      19.24      11.56
C      23.81       3.90      13.97
C      22.74       4.23      14.86
C      22.97       4.82      16.12
C       0.22       5.04      16.52
C       1.30       4.55      15.75
C       1.03       3.98      14.49
C      21.93       5.16      17.02
C       2.63       4.53      16.23
C      23.54       3.62      12.61
C       0.14      18.96      13.98
C       1.21      18.63      14.86
C       0.98      18.05      16.13
C      23.72      17.82      16.52
C      22.65      18.31      15.75
C      22.92      18.88      14.49
C       2.02      17.71      17.02
C      21.32      18.33      16.23
C       0.41      19.24      12.61
C      10.08      23.69       4.56
C       9.20       0.67       4.89
C       7.93       0.44       5.47
C       7.54      23.18       5.70
C       8.30      22.11       5.20
C       9.56      22.38       4.64
C       7.04       1.48       5.82
C       7.83      20.78       5.18
C      11.45      23.96       4.28
C      10.08      23.27      19.61
C       9.20      22.20      19.28
C       7.93      22.43      18.70
C       7.54      23.77      18.47
C       8.31       0.76      18.96
C       9.57       0.49      19.53
C       7.04      21.39      18.35
C       7.83       2.08      18.99
C      11.45      23.00      19.89
C      13.87      23.26       4.56
C      14.75      22.20       4.89
C      16.02      22.43       5.48
C      16.41      23.77       5.70
C      15.65       0.76       5.20
C      14.39       0.49       4.64
C      16.91      21.39       5.82
C      16.12       2.08       5.18
C      12.50      23.00       4.29
C      13.87      23.69      19.61
C      14.75       0.67      19.28
C      16.02       0.44      18.69
C      16.41      23.18      18.47
C      15.65      22.11      18.96
C      14.38      22.38      19.53
C      16.91       1.48      18.35
C      16.12      20.78      18.99
C      12.50      23.96      19.88
C       4.45       9.54       0.25
C       4.78       8.66       1.32
C       5.36       7.39       1.08
C       5.58       6.99      23.83
C       5.09       7.76      22.75
C       4.53       9.02      23.02
C       5.70       6.50       2.12
C       5.07       7.29      21.43
C       4.17      10.91       0.51
C      19.50       9.54      23.92
C      19.17       8.66      22.85
C      18.59       7.39      23.08
C      18.36       7.00       0.33
C      18.85       7.77       1.41
C      19.42       9.03       1.14
C      18.25       6.50      22.04
C      18.87       7.29       2.74
C      19.78      10.91      23.65
C       4.45      13.32      23.92
C       4.78      14.20      22.85
C       5.36      15.47      23.08
C       5.59      15.87       0.33
C       5.10      15.10       1.41
C       4.53      13.84       1.14
C       5.70      16.37      22.04
C       5.07      15.58       2.74
C       4.17      11.96      23.65
C      19.50      13.33       0.25
C      19.18      14.21       1.32
C      18.59      15.48       1.08
C      18.37      15.87      23.83
C      18.86      15.10      22.75
C      19.42      13.84      23.03
C      18.25      16.37       2.12
C      18.88      15.58      21.43
C      19.78      11.96       0.52
C       4.23       4.67       6.28
C       6.17       3.69       5.32
C       5.21       5.62       4.34
C      19.72      18.20       6.28
C      17.78      19.18       5.32
C      18.74      17.24       4.34
C      19.72       4.66      17.89
C      17.78       3.69      18.85
C      18.74       5.63      19.83
C       4.23      18.20      17.89
C       6.17      19.18      18.85
C       5.21      17.24      19.83
C      19.80      17.92      18.04
C      17.93      19.26      18.57
C      18.47      17.39      19.91
C       4.15       4.94      18.04
C       6.02       3.61      18.57
C       5.48       5.48      19.91
C       4.15      17.92       6.13
C       6.02      19.26       5.59
C       5.48      17.39       4.26
C      19.80       4.94       6.13
C      17.93       3.61       5.59
C      18.46       5.48       4.26
H      23.54       5.43       6.72
H      22.13       3.65      10.23
H       2.17       4.15       9.64
H       1.39       3.65      11.82
H      20.62       3.98       8.45
H       1.78       5.70       6.31
H       0.41      17.43       6.72
H       1.82      19.21      10.23
H      21.78      18.72       9.64
H      22.56      19.22      11.82
H       3.33      18.88       8.45
H      22.17      17.17       6.31
H       0.41       5.44      17.45
H       1.82       3.65      13.94
H      21.77       4.15      14.53
H      22.56       3.64      12.35
H       3.33       3.98      15.72
H      22.17       5.70      17.86
H      23.54      17.43      17.45
H      22.13      19.22      13.94
H       2.17      18.72      14.53
H       1.39      19.22      12.35
H      20.62      18.88      15.72
H       1.78      17.17      17.86
H       6.61      23.00       6.08
H      10.12      21.59       4.30
H       9.54       1.63       4.81
H      11.71       0.85       4.30
H       8.34      20.08       4.63
H       6.20       1.24       6.36
H       6.61      23.96      18.08
H      10.12       1.28      19.87
H       9.53      21.23      19.36
H      11.71      22.02      19.87
H       8.34       2.78      19.54
H       6.20      21.63      17.81
H      17.34      23.96       6.08
H      13.83       1.28       4.30
H      14.41      21.23       4.81
H      12.24      22.02       4.31
H      15.61       2.78       4.63
H      17.75      21.62       6.36
H      17.34      23.00      18.08
H      13.83      21.59      19.87
H      14.42       1.63      19.36
H      12.24       0.85      19.86
H      15.61      20.08      19.54
H      17.75       1.24      17.81
H       5.97       6.06      23.64
H       4.20       9.58      22.24
H       4.69       8.99       2.28
H       4.19      11.17       1.50
H       4.53       7.80      20.73
H       6.24       5.66       1.89
H      17.97       6.07       0.52
H      19.75       9.58       1.93
H      19.26       8.99      21.89
H      19.76      11.17      22.67
H      19.42       7.80       3.44
H      17.71       5.66      22.28
H       5.98      16.80       0.52
H       4.19      13.29       1.93
H       4.69      13.87      21.88
H       4.19      11.70      22.66
H       4.53      15.06       3.44
H       6.24      17.21      22.28
H      17.98      16.80      23.64
H      19.76      13.29      22.24
H      19.26      13.88       2.28
H      19.76      11.70       1.50
H      19.43      15.07      20.73
H      17.71      17.21       1.89
N       5.19       3.70       6.26
N       6.15       4.65       4.35
N       4.25       5.61       5.30
N       3.22       4.53       7.17
N       5.07       6.51       3.32
N       7.06       2.67       5.18
N      18.76      19.16       6.26
N      17.80      18.22       4.35
N      19.71      17.25       5.30
N      20.73      18.34       7.16
N      18.88      16.35       3.32
N      16.89      20.19       5.19
N      18.76       3.70      17.90
N      17.80       4.65      19.81
N      19.71       5.61      18.87
N      20.73       4.53      17.00
N      18.88       6.51      20.84
N      16.89       2.67      18.98
N       5.19      19.16      17.90
N       6.15      18.22      19.81
N       4.24      17.25      18.87
N       3.21      18.34      17.00
N       5.07      16.35      20.84
N       7.06      20.19      18.99
N      19.00      18.99      17.79
N      17.68      18.46      19.65
N      19.54      17.14      19.11
N      20.95      17.72      17.37
N      18.26      16.72      21.06
N      17.26      20.41      18.37
N       4.95       3.87      17.79
N       6.27       4.41      19.64
N       4.41       5.73      19.11
N       3.00       5.15      17.37
N       5.69       6.15      21.05
N       6.69       2.46      18.37
N       4.95      19.00       6.38
N       6.27      18.46       4.52
N       4.41      17.14       5.06
N       3.00      17.72       6.80
N       5.69      16.72       3.11
N       6.69      20.41       5.79
N      19.00       3.87       6.37
N      17.68       4.41       4.52
N      19.54       5.73       5.06
N      20.95       5.15       6.80
N      18.26       6.15       3.11
N      17.26       2.46       5.79
