23

N       0.38      -4.24       9.69
N       1.23      -1.66      14.12
O      -1.83      -4.97       8.23
O      -3.09      -3.49       9.41
H      -0.69      -2.16      14.85
H      -1.15      -3.88      13.16
H       2.70      -2.97      11.35
H       3.02      -1.26      13.09
H       1.36      -5.46      11.07
H      -0.38      -5.30      11.37
H      -0.92      -2.74      10.46
H       0.52      -1.62       8.74
H      -1.18      -1.55       8.22
H      -0.08      -2.74       7.48
C       0.04      -2.39      14.08
C      -0.21      -3.35      13.13
C       0.75      -3.66      12.12
C       1.94      -2.85      12.13
C       2.14      -1.90      13.09
C       0.53      -4.73      11.13
C      -0.71      -3.25       9.51
C      -1.97      -3.98       9.03
C      -0.34      -2.23       8.42
