23

H       7.39      11.76       9.41
H       6.86       9.43      10.04
H      10.69       8.25       8.34
H      11.07      10.61       7.77
H       9.31       6.79      10.37
H       7.58       7.16      10.37
H       7.03       7.63       7.73
H       8.48       6.74       5.90
H       6.78       6.33       5.56
H       7.88       5.09       6.20
O       6.12       4.59       8.53
O       4.86       6.35       7.86
C       8.09      10.95       9.22
C       7.82       9.65       9.56
C       8.75       8.61       9.32
C       9.95       8.99       8.63
C      10.18      10.30       8.30
C       8.50       7.22       9.76
C       7.24       6.55       7.68
C       5.98       5.78       8.08
C       7.61       6.16       6.24
N       8.33       6.22       8.62
N       9.29      11.33       8.62
