23

N       3.53       3.44       7.98
N       4.52      -1.68       7.94
O       1.31       5.04       8.06
O       0.06       3.29       8.76
H       2.61      -2.10       7.16
H       2.07       0.22       6.55
H       5.90       1.41       8.22
H       6.30      -0.95       8.79
H       4.50       2.88       6.23
H       2.78       2.50       6.23
H       2.23       2.01       8.88
H       3.67       2.91      10.71
H       1.96       3.32      11.04
H       3.06       4.56      10.40
C       3.31      -1.30       7.34
C       3.03       0.00       7.01
C       3.96       1.05       7.26
C       5.16       0.67       7.94
C       5.40      -0.65       8.25
C       3.69       2.45       6.84
C       2.43       3.09       8.92
C       1.17       3.86       8.53
C       2.80       3.50      10.36
