28

N       4.65       0.46       0.60
N       4.58      -0.89       0.69
N       4.19      -0.98      -5.05
N       3.03      -0.32      -4.84
H       4.66      -1.35       1.59
H       2.36      -0.32      -5.65
H       3.57       2.69      -0.94
H       5.34       2.71      -0.76
H       4.60       2.15      -2.30
H       4.25      -3.46       0.30
H       3.31      -3.20      -1.19
H       5.08      -3.34      -1.27
H       1.54       1.66      -3.45
H       0.73       0.09      -3.26
H       1.69       0.75      -1.93
H       6.79      -1.59      -4.51
H       6.54      -1.64      -2.74
H       5.92      -2.95      -3.79
C       4.49       2.16      -1.20
C       4.46       0.76      -0.70
C       4.26      -0.43      -1.43
C       4.36      -1.48      -0.51
C       4.25      -2.95      -0.67
C       1.64       0.66      -3.02
C       2.85      -0.03      -3.54
C       3.98      -0.53      -2.86
C       4.79      -1.13      -3.86
C       6.08      -1.86      -3.71
