16

H       1.50       4.67       1.02
H      -0.17       5.85      -0.45
H      -1.81       2.06      -1.61
H      -0.26       0.90      -0.05
O       2.82       2.72       1.62
O       1.55       0.85       1.84
O      -2.06       6.02      -1.85
O      -2.90       4.08      -2.69
C       1.75       2.02       1.42
C       0.73       2.72       0.57
C       0.76       4.11       0.45
C      -0.15       4.76      -0.37
C      -1.10       2.63      -1.01
C      -0.22       1.98      -0.15
C      -2.10       4.72      -1.98
C      -1.08       4.02      -1.12
