16

H       9.98      10.91      16.25
H       8.43       9.75      17.80
C       6.42      10.87      19.27
C       7.44      11.57      18.43
C       7.41      12.96      18.30
C       8.32      13.61      17.48
C       9.27      11.48      16.84
C       8.39      10.83      17.70
C      10.27      13.57      15.87
C       9.25      12.87      16.73
O       5.35      11.57      19.47
O       6.62       9.70      19.69
O      10.23      14.87      16.00
O      11.07      12.93      15.17
H       6.67      13.52      18.87
H       8.33      14.70      17.40
