16

C       1.10      15.07       1.01
C       0.22      15.72       0.15
C       2.10      12.98       1.98
C       1.08      13.68       1.12
C       0.15      12.94       0.37
H      -1.50      13.03      -1.02
H       0.17      11.85       0.45
H       1.81      15.64       1.61
H       0.26      16.80       0.05
C      -1.75      15.68      -1.42
C      -0.76      13.59      -0.45
C      -0.73      14.99      -0.57
O      -2.82      14.98      -1.62
O      -1.55      16.85      -1.84
O       2.06      11.68       1.85
O       2.90      13.62       2.69
