28

N      11.69      17.24      17.25
N      11.75      18.59      17.16
N      12.15      18.69      22.90
N      13.31      18.02      22.70
H      11.68      19.05      16.26
H      13.98      18.02      23.50
H      12.77      15.01      18.80
H      11.00      14.99      18.62
H      11.74      15.55      20.15
H      12.09      21.16      17.55
H      13.03      20.91      19.04
H      11.26      21.05      19.12
H      14.80      16.04      21.30
H      15.61      17.61      21.11
H      14.65      16.95      19.78
H       9.55      19.30      22.36
H       9.80      19.35      20.59
H      10.42      20.65      21.64
C      11.85      15.55      19.06
C      11.88      16.95      18.55
C      12.08      18.13      19.29
C      11.98      19.18      18.36
C      12.09      20.65      18.52
C      14.70      17.05      20.87
C      13.49      17.73      21.39
C      12.35      18.23      20.72
C      11.55      18.83      21.71
C      10.26      19.56      21.57
