16

C       6.42       6.83      10.34
C       7.44       6.13       9.50
C       7.41       4.74       9.38
C       8.32       4.09       8.55
O       5.35       6.13      10.54
O       6.62       8.00      10.77
C       8.39       6.87       8.78
C       9.27       6.22       7.91
C       9.25       4.83       7.80
C      10.27       4.13       6.95
O      10.23       2.83       7.08
O      11.07       4.77       6.24
H       6.67       4.18       9.95
H       8.33       3.00       8.47
H       9.98       6.79       7.32
H       8.43       7.95       8.88
