28

H       4.66       1.35      10.52
H       2.36       0.32       3.27
H       3.57      -2.69       7.98
H       5.34      -2.71       8.16
H       4.60      -2.15       6.63
H       4.25       3.46       9.23
H       3.31       3.20       7.74
H       5.08       3.34       7.66
H       1.54      -1.66       5.48
H       0.73      -0.09       5.67
H       1.69      -0.75       7.00
H       6.79       1.59       4.42
H       6.54       1.64       6.18
H       5.92       2.95       5.14
C       4.49      -2.16       7.72
C       4.46      -0.76       8.23
C       4.26       0.43       7.49
C       4.36       1.48       8.42
C       4.25       2.95       8.26
C       1.64      -0.66       5.91
C       2.85       0.03       5.39
C       3.98       0.53       6.06
C       4.79       1.13       5.07
C       6.08       1.86       5.21
N       4.65      -0.46       9.53
N       4.58       0.89       9.62
N       4.19       0.98       3.88
N       3.03       0.32       4.08
