16

C       9.92       6.83      16.44
C       8.90       6.13      17.28
C       8.93       4.74      17.40
C       8.02       4.09      18.23
C       7.07       6.22      18.87
C       7.95       6.87      18.00
C       6.07       4.13      19.83
C       7.09       4.83      18.98
O      10.99       6.13      16.24
O       9.72       8.00      16.01
O       6.10       2.83      19.70
O       5.27       4.77      20.54
H       9.67       4.18      16.83
H       8.00       3.00      18.30
H       6.36       6.79      19.46
H       7.91       7.95      17.90
