27

Cd       1.77      -1.41       3.73
Cd       4.16       1.27       2.83
H       1.50       1.22       2.41
H       1.51       1.24       4.15
C      -0.79      -1.66       1.77
C       2.29       1.78       0.23
C       1.87      -4.65       3.46
C       4.10       4.60       2.61
C       4.34      -0.25       5.51
C       4.11       3.84       4.81
C       7.39       1.54       3.11
C       1.04       0.39       6.33
C       6.67       1.39       0.90
C       3.30      -1.42       1.07
C      -1.54      -1.73       3.96
C       1.93      -3.93       5.67
N      -0.53      -1.63       3.09
N       1.87      -3.65       4.36
N       4.12       3.58       3.49
N       6.39       1.42       2.21
O       3.88      -1.22       4.84
O       4.69       0.89       5.05
O       1.02      -0.81       5.91
O       3.48       1.93       0.65
O       2.20      -1.89       1.52
O       1.91       0.86       3.28
O       4.22      -0.87       1.75
