84

H       5.72       6.47      20.56
H       5.72       4.77      35.04
H       2.20       4.02      20.69
H       2.20       7.22      34.91
H       6.48       7.07      18.52
H       6.48       4.16      37.07
H       2.29       3.35      17.27
H       2.29       7.89      38.32
H       5.77       9.94      22.53
H       5.77       1.30      33.06
H       7.65       2.29      23.46
H       7.64       8.94      32.13
H       3.77       9.91      29.29
H       3.77       1.32      26.30
H       6.28       2.19      29.53
H       6.29       9.03      26.07
C       3.88       5.21      16.48
C       3.88       6.03      39.11
C       3.91       6.53      22.82
C       3.91       4.70      32.78
C       4.26       4.18      22.93
C       4.26       7.05      32.67
C       2.96       4.55      20.11
C       2.95       6.69      35.48
C       4.94       5.92      20.03
C       4.94       5.31      35.56
C       2.93       4.48      18.71
C       2.93       6.76      36.88
C       4.91       5.92      18.63
C       4.91       5.32      36.96
C       3.96       5.25      20.77
C       3.96       5.98      34.82
C       4.28       5.49      24.97
C       4.27       5.75      30.62
C       4.16       6.66      24.20
C       4.16       4.58      31.39
C       4.42       4.25      24.32
C       4.41       6.98      31.27
C       4.46       7.89      24.82
C       4.46       3.35      30.77
C       4.81       3.16      25.09
C       4.81       8.08      30.51
C       3.90       5.20      17.96
C       3.90       6.04      37.64
C       4.40       6.87      28.45
C       4.40       4.36      27.15
C       4.44       4.42      28.57
C       4.44       6.81      27.02
C       4.36       5.68      29.20
C       4.36       5.56      26.39
C       4.40       8.09      29.16
C       4.40       3.15      26.43
C       4.74       3.31      29.39
C       4.74       7.93      26.20
C       4.68       9.09      23.99
C       4.67       2.15      31.60
C       6.12       2.53      24.77
C       6.12       8.70      30.82
N       4.00       5.31      22.20
N       4.00       5.92      33.39
O       2.77       5.22      15.84
O       4.99       6.02      39.76
O       2.77       6.02      39.76
O       4.99       5.22      15.84
O       3.56       7.61      22.08
O       3.56       3.63      33.51
O       4.34       2.99      22.30
O       4.34       8.25      33.29
O       5.85       6.63      17.90
O       5.85       4.61      37.69
O       1.96       3.68      18.14
O       1.96       7.55      37.45
O       3.81       9.95      23.94
O       5.81       9.16      23.18
O       3.81       1.28      31.65
O       5.80       2.08      32.42
O       6.74       1.94      25.65
O       6.73       2.73      23.53
O       6.74       9.29      29.94
O       6.73       8.51      32.06
O       3.89       9.23      28.59
O       3.89       2.01      27.00
O       5.55       2.32      28.88
O       5.54       8.92      26.71
