23

C       7.54      -6.30      25.04
C       4.41      -9.73      25.28
Zn       7.15      -9.09      24.95
C       9.09     -11.01      24.19
C      10.59      -8.32      27.91
O       7.50      -9.29      26.74
O      10.41      -9.54      27.59
Zn       8.93     -10.41      26.96
O       8.15     -10.20      23.88
Zn       6.04     -10.02      27.57
O       9.45     -11.14      25.41
O       7.40      -7.39      24.39
O       4.57     -10.08      26.49
Zn       7.88      -7.65      27.49
O       5.40      -9.37      24.57
O       5.53      -9.03      28.98
O       6.36     -11.66      28.28
O       8.56     -11.84      28.03
O       9.61      -7.51      27.94
C       7.45     -12.29      28.47
C       5.92      -7.94      29.50
O       7.66      -6.30      26.31
O       6.87      -7.28      28.98
