23

C       4.42       8.26      27.88
C       7.53       6.31      25.05
C       5.95      11.01      24.23
C      10.61       9.79      25.36
C       9.10       7.92      29.54
C       7.49      12.27      28.54
Zn       6.06      10.39      26.99
Zn       7.15       7.63      27.51
Zn       7.89       9.11      24.99
Zn       8.96      10.03      27.64
O       7.51       9.29      26.78
O       4.58       9.49      27.58
O       7.39       6.30      26.32
O       6.89      10.21      23.92
O       5.40       7.46      27.93
O       5.56      11.12      25.44
O       7.66       7.41      24.41
O      10.43      10.13      26.58
O       8.15       7.25      28.99
O       9.63       9.42      24.64
O       9.47       9.03      29.04
O       8.59      11.65      28.37
O       6.40      11.82      28.07
