23

O      21.42      18.42      24.23
C      20.98      15.49      21.63
C      22.54      18.55      17.95
C      19.42      20.02      21.06
C      24.09      21.63      21.60
C      25.63      17.09      21.11
C      22.52      18.57      24.86
Zn      21.08      18.19      22.45
Zn      22.91      17.10      20.34
Zn      22.15      20.01      20.33
Zn      23.97      18.93      22.46
O      22.53      18.56      21.39
O      20.59      16.48      22.32
O      22.68      17.45      18.58
O      20.40      20.47      20.39
O      21.91      15.62      20.77
O      19.60      19.14      21.97
O      22.40      19.65      18.58
O      24.47      20.65      22.31
O      24.65      16.64      20.43
O      23.15      21.49      20.75
O      25.45      17.97      22.01
O      23.62      18.72      24.23
