23

O       7.53       0.03      10.75
O       9.33       2.37      11.33
O       6.86       0.94       7.96
O       9.95      -1.75      10.19
O       7.81       2.92       9.82
O      10.31      -0.24      11.78
O       8.15      -0.87       7.95
O       5.73      -2.33      11.34
C      10.70      -1.23      11.09
C       6.19      -3.14      10.49
O       7.24      -2.87       9.81
C       4.36       1.29      11.15
O       8.33       0.80      13.57
C       7.55       0.01      14.20
Zn       8.22      -1.33       9.71
Zn       6.26      -0.68      11.84
C       7.50       0.03       7.32
O       5.09       1.81      10.25
Zn       8.81       0.73      11.83
Zn       6.82       1.38       9.73
O       6.77      -0.76      13.57
O       4.77       0.29      11.82
C       8.87       3.19      10.48
