23

O      22.51       9.25       5.39
O      20.58       9.49       3.11
O      22.67      12.24       5.82
O      20.38       9.14       7.53
O      21.90      11.26       3.15
O      19.59       8.44       5.59
O      22.35      11.15       7.73
O      24.46       7.42       6.75
O      24.64      11.04       4.20
O      23.14       8.37       8.25
O      25.44       9.00       4.57
O      23.60       6.70       4.13
O      21.41       6.87       3.84
C      20.97      10.59       2.61
C      22.51      12.24       7.09
C      19.40       8.78       6.80
C      24.08       7.56       7.96
C      25.62      10.22       4.25
C      22.51       6.24       3.67
Zn      21.07       8.51       4.53
Zn      22.90      10.89       4.65
Zn      22.12       9.45       7.18
Zn      23.96       8.13       5.19
