23

Zn      21.83       0.72      22.98
Zn      24.34       0.01      21.43
Zn      21.84      -1.71      21.28
Zn      21.83       0.98      20.02
O      22.47       0.00      21.43
O      23.16       1.39      23.99
O      25.03      -1.71      21.55
O      20.77      -2.20      22.65
O      25.02       0.97      22.85
O      20.91      -0.46      24.01
O      23.17      -2.90      21.36
O      20.79       0.01      18.89
O      25.01       0.77      19.88
O      20.94      -2.03      19.73
O      23.15       1.53      18.95
O      20.89       2.45      20.52
O      20.77       2.17      22.71
C      24.42       1.50      23.85
C      24.43      -2.84      21.52
C      20.51      -1.65      23.77
C      20.54      -1.23      18.82
C      24.41       1.37      18.93
C      20.50       2.84      21.67
