26

C       3.94      11.95      19.01
C       3.92       6.51      20.22
O       5.16      12.34      18.80
O       5.15       6.15      20.48
O       2.85      12.55      18.59
O       2.84       5.94      20.68
H       1.63       8.07      20.24
H       1.74      10.39      18.72
C       2.37       8.44      19.52
C       2.38       9.99      19.49
H       2.04       8.05      18.55
H       1.90      10.36      20.42
C       4.71       9.73      18.38
C       4.42       8.75      20.97
C       4.64       8.21      18.56
C       4.45      10.27      20.76
H       4.51      10.02      17.35
H       3.73       8.55      21.76
C       3.81       7.93      19.80
C       3.84      10.53      19.41
H       3.89      10.80      21.56
H       4.19       7.73      17.67
H       5.66       7.80      18.70
H       5.50      10.64      20.80
H       5.76       9.99      18.62
H       5.43       8.41      21.22
