26

H       1.43       8.24      12.57
C       0.71       8.07      14.68
H       2.76      10.46      13.49
H      -1.32       8.56      15.38
H       1.20      10.52      12.74
H      -0.95       8.76      13.64
H      -0.80      10.98      13.91
C       1.69       8.58      13.58
O       0.49       6.13      13.34
H       0.72       7.91      16.83
H      -0.95      10.80      15.68
C       1.74      10.11      13.62
O      -0.49       6.21      15.43
H       2.36       7.81      16.08
O       2.37      12.56      14.47
C      -0.60       8.91      14.63
H       2.53      10.09      16.53
O       1.04      12.51      16.36
C       1.09      10.65      14.93
C      -0.40      10.43      14.79
C       1.52       9.83      16.19
C       0.31       6.66      14.51
C       1.43      12.06      15.20
C       1.37       8.32      16.02
H       2.69       8.16      13.77
H       0.79      10.10      16.98
