26

H       7.01      11.96      15.45
H       4.50       8.70      15.88
H      -0.64      12.63       9.52
H       0.58      12.34      11.70
H       3.84      14.61      10.01
H       2.46      14.86       7.93
H       4.08      13.73      12.22
H       2.60      13.58      13.16
H       3.87      11.27      11.55
H       2.41      11.15      12.50
H       3.00       9.51      14.06
H       5.64      12.89      13.58
N       5.80      10.31      15.75
N       0.88      13.74       8.65
C       6.11      11.46      15.11
C       4.70       9.64      15.36
C       0.36      13.05       9.69
C       1.05      12.89      10.88
C       2.33      13.43      11.03
C       2.86      14.15       9.95
C       2.10      14.29       8.79
C       3.13      13.19      12.28
C       3.37      11.67      12.45
C       4.20      11.26      13.63
C       3.88      10.09      14.33
C       5.34      11.96      14.06
