26

C       3.47      10.86       8.28
C       3.31       9.57       7.43
C       5.74      10.47       9.37
C       3.66       8.34       8.26
H       3.56      10.44       5.51
H       6.00      10.29       5.29
H       6.14       9.43       6.82
H       4.87      12.19       6.49
H       4.92      12.33       8.91
H       3.00      10.71       9.26
H       2.91      11.66       7.77
H       2.24       9.46       7.19
O       7.06      13.20       7.84
O       7.72      11.94       6.10
O       7.00      10.28       9.18
O       5.15       9.94      10.38
O       4.78       7.76       8.18
O       2.75       7.95       9.11
O       4.96       8.11       4.48
O       2.93       7.71       5.36
C       4.00       8.41       5.27
C       4.10       9.68       6.11
C       5.54      10.17       6.28
C       5.55      11.50       7.03
C       6.88      12.24       7.01
C       4.92      11.34       8.43
