12

Zn       5.96       4.52       5.29
N       8.70       4.02       5.82
N       7.94       4.72       5.08
O       5.45       6.41       5.36
O       5.72       2.56       5.31
O       5.46       4.45       3.34
H       8.44       5.34       4.42
O       5.71       4.52       7.33
C       4.28       6.89       5.49
C       4.66       1.85       5.42
C       4.28       4.36       2.83
C       4.66       4.39       8.07
