390

C      18.66      20.27      20.33
C      19.62      20.48      21.33
C      20.46      19.38      21.38
C      20.05      18.45      20.41
C      20.71      17.21      20.31
C      21.78      16.89      21.18
C      22.17      17.86      22.15
C      21.52      19.10      22.25
C      19.64      21.68      22.07
C      18.69      22.67      21.77
C      17.72      22.49      20.75
C      17.71      21.27      20.03
C      19.09      19.09      18.20
C      18.12      18.38      17.49
C      17.29      17.73      18.40
C      17.71      18.05      19.70
C      16.22      16.85      18.17
C      15.58      16.26      19.28
C      16.00      16.56      20.61
C      17.07      17.46      20.81
C      20.04      19.86      17.50
C      20.03      19.90      16.09
C      19.04      19.16      15.39
C      18.09      18.39      16.08
C      18.88      18.96      19.66
C      15.47      15.85      21.67
C      20.95      20.69      15.40
C      16.82      23.49      20.41
C      22.33      15.62      21.19
C      10.47      33.98      18.14
C      11.43      34.73      17.45
C      12.27      35.34      18.37
C      11.88      34.97      19.66
C      12.53      35.52      20.78
C      13.61      36.43      20.60
C      14.00      36.77      19.28
C      13.34      36.22      18.16
C      11.44      34.76      16.04
C      10.48      34.01      15.34
C       9.51      33.23      16.02
C       9.51      33.23      17.44
C      10.90      32.75      20.24
C       9.94      32.51      21.22
C       9.11      33.62      21.31
C       9.53      34.57      20.37
C       8.04      33.88      22.19
C       7.41      35.14      22.13
C       7.83      36.13      21.20
C       8.90      35.83      20.32
C      11.85      31.75      19.92
C      11.84      30.51      20.61
C      10.85      30.30      21.61
C       9.90      31.29      21.92
C      10.70      34.07      19.61
C       7.30      37.40      21.27
C      12.75      29.52      20.28
C       8.60      32.44      15.33
C      14.17      37.07      21.69
C       2.06      25.30       7.45
C       3.01      24.32       7.14
C       3.85      24.83       6.15
C       3.46      26.13       5.84
C       4.11      26.85       4.82
C       5.18      26.24       4.10
C       5.57      24.92       4.45
C       4.92      24.21       5.47
C       3.02      23.08       7.79
C       2.07      22.84       8.80
C       1.10      23.82       9.15
C       1.11      25.06       8.46
C       2.50      27.73       7.51
C       1.54      28.71       7.24
C       0.70      28.25       6.23
C       1.11      26.96       5.86
C      24.52      28.88       5.58
C      23.89      28.22       4.52
C      24.30      26.93       4.11
C       0.48      26.30       4.79
C       3.46      27.94       8.52
C       3.46      29.16       9.25
C       2.48      30.13       8.96
C       1.51      29.92       7.95
C       2.29      26.53       6.66
C      23.76      26.37       2.96
C       4.39      29.35      10.26
C       0.20      23.60      10.18
C       5.74      26.88       3.00
C       6.21       7.02      25.11
C       7.16       6.80      24.10
C       8.00       7.90      24.04
C       7.60       8.83      25.01
C       8.26      10.08      25.11
C       9.33      10.38      24.23
C       9.72       9.42      23.26
C       9.07       8.17      23.17
C       7.17       5.60      23.37
C       6.22       4.61      23.66
C       5.25       4.81      24.68
C       5.25       6.03      25.40
C       6.64       8.20      27.23
C       5.68       8.93      27.94
C       4.85       9.57      27.03
C       5.26       9.24      25.73
C       3.78      10.46      27.25
C       3.15      11.04      26.14
C       3.56      10.74      24.81
C       4.63       9.83      24.62
C       7.60       7.44      27.92
C       7.60       7.42      29.34
C       6.62       8.17      30.04
C       5.66       8.93      29.34
C       6.43       8.33      25.77
C       3.03      11.45      23.75
C       8.53       6.64      30.03
C       4.34       3.81      25.02
C       9.88      11.66      24.22
C      22.70      -6.58      27.23
C      23.65      -7.35      27.91
C      24.48      -7.95      26.97
C      24.08      -7.56      25.69
C      24.73      -8.09      24.56
C       0.90      -9.01      24.72
C       1.30      -9.38      26.03
C       0.65      -8.85      27.16
C      23.67      -7.40      29.31
C      22.73      -6.65      30.04
C      21.76      -5.85      29.37
C      21.75      -5.83      27.95
C      23.13      -5.32      25.15
C      22.16      -5.05      24.18
C      21.32      -6.16      24.07
C      21.74      -7.13      24.99
C      20.25      -6.40      23.19
C      19.61      -7.65      23.23
C      20.03      -8.66      24.14
C      21.10      -8.39      25.03
C      24.09      -4.34      25.47
C      24.10      -3.09      24.80
C      23.11      -2.86      23.80
C      22.14      -3.83      23.49
C      22.91      -6.65      25.76
C      19.50      -9.93      24.05
C       0.13      -2.12      25.14
C      20.87      -5.05      30.08
C       1.46      -9.64      23.61
C      14.51       2.12      38.05
C      15.47       3.10      38.35
C      16.31       2.60      39.34
C      15.91       1.30      39.66
C      16.56       0.59      40.69
C      17.63       1.20      41.40
C      18.03       2.51      41.04
C      17.38       3.22      40.01
C      15.49       4.33      37.68
C      14.54       4.57      36.67
C      13.57       3.59      36.33
C      13.56       2.36      37.03
C      14.94      -0.31      38.01
C      13.97      -1.28      38.29
C      13.14      -0.81      39.29
C      13.56       0.48      39.66
C      12.07      -1.44      39.95
C      11.44      -0.76      41.01
C      11.85       0.53      41.41
C      12.93       1.15      40.73
C      15.89      -0.53      37.00
C      15.88      -1.74      36.26
C      14.89      -2.72      36.57
C      13.94      -2.49      37.58
C      14.73       0.90      38.85
C      11.32       1.11      42.55
C      16.79      -1.94      35.24
C      12.67       3.80      35.29
C      18.19       0.57      42.50
C      22.60      22.29      13.40
C      23.84      22.00      11.40
C      22.61      20.17      12.26
C      22.16      20.95      13.35
C      14.37      26.96      19.91
C      15.60      25.37      21.18
C      14.38      27.06      22.32
C      13.95      27.61      21.09
C       6.07      30.30      12.63
C       7.34      32.18      13.34
C       6.10      32.32      11.33
C       5.64      31.00      11.48
C      10.18       5.07      32.05
C      11.44       5.39      34.04
C      10.23       7.22      33.13
C       9.76       6.42      32.07
C       1.81       0.40      25.50
C       3.09       1.95      24.24
C       1.86       0.28      23.10
C       1.38      -0.25      24.32
C      18.42      -2.90      32.84
C      19.65      -4.78      32.09
C      18.45      -4.93      34.13
C      18.00      -3.60      33.99
C       0.80      14.52      21.78
C       1.06      12.43      22.89
C      23.77      13.19      22.34
C      24.29      14.38      21.78
C      17.52      38.18      22.32
C      17.52     -11.16      23.60
C      15.35     -12.03      23.22
C      16.12      38.23      22.46
C       9.09      26.91       1.74
C       9.35       1.35      43.84
C       7.17      27.10       0.32
C       7.69      27.00       1.63
C      13.24      12.76      23.62
C      13.49      14.86      22.52
C      11.31      14.09      23.07
C      11.84      12.90      23.62
C       4.82     -10.69      22.94
C       5.33      38.64      21.68
C       2.90     -11.84      22.07
C       3.42     -10.76      22.82
C      21.54       0.55      43.77
C      21.79      26.12       1.68
C      19.61      26.02       0.74
C      20.14       0.47      43.89
H      18.99      19.18      14.37
H      17.37      17.87      15.57
H      15.93      16.61      17.23
H      14.84      15.58      19.11
H      17.42      17.66      21.75
H      20.73      20.40      18.04
H      20.37      16.52      19.62
H      22.91      17.65      22.83
H      21.80      19.77      22.98
H      17.04      21.11      19.28
H      20.34      21.84      22.79
H      18.73      23.55      22.30
H      21.34      21.48      15.86
H      16.09      15.38      22.29
H      16.50      23.56      19.48
H      21.75      14.84      21.03
H      10.80      29.41      22.11
H       9.19      31.11      22.63
H       7.76      33.19      22.89
H       6.68      35.34      22.81
H       9.25      36.54      19.67
H      12.54      31.93      19.19
H      12.20      35.27      21.72
H      14.74      37.45      19.11
H      13.62      36.51      17.22
H       8.84      32.67      17.96
H      12.15      35.30      15.53
H      10.52      34.01      14.31
H      13.13      29.50      19.36
H       7.92      38.17      21.37
H       8.27      31.60      15.75
H      13.58      37.33      22.46
H       2.43      31.01       9.49
H       0.80      30.63       7.76
H      24.24      29.83       5.85
H      23.14      28.72       4.02
H       0.82      25.38       4.49
H       4.15      27.21       8.71
H       3.78      27.78       4.57
H       6.31      24.44       3.93
H       5.19      23.25       5.68
H       0.44      25.79       8.70
H       3.72      22.37       7.57
H       2.11      21.94       9.29
H       4.77      28.56      10.74
H      24.38      26.06       2.24
H      24.77      24.38      10.72
H       5.15      27.42       2.41
H       6.57       8.16      31.06
H       4.95       9.45      29.86
H       3.50      10.71      28.20
H       2.41      11.73      26.31
H       4.97       9.63      23.67
H       8.29       6.90      27.39
H       7.93      10.76      25.79
H      10.46       9.62      22.58
H       9.34       7.51      22.44
H       4.58       6.20      26.16
H       7.87       5.44      22.64
H       6.25       3.73      23.14
H       8.90       5.83      29.59
H       3.65      11.91      23.12
H       4.01       3.75      25.95
H       9.30      12.44      24.38
H      23.07      -1.96      23.31
H      21.43      -3.64      22.78
H      19.97      -5.69      22.51
H      18.88      -7.83      22.54
H      21.44      -9.11      25.67
H      24.78      -4.54      26.20
H      24.40      -7.83      23.62
H       2.04     -10.07      26.18
H       0.93      -9.15      28.10
H      21.08      -5.25      27.44
H      24.38      -7.95      29.81
H      22.78      -6.67      31.06
H       0.51      -2.11      26.06
H      20.11     -10.70      23.93
H      20.55      -4.21      29.67
H       0.87      -9.90      22.85
H      14.84      -3.59      36.04
H      13.22      -3.20      37.78
H      11.78      -2.38      39.70
H      10.69      -1.25      41.52
H      13.27       2.07      41.02
H      16.58       0.20      36.79
H      16.22      -0.34      40.95
H      18.77       2.99      41.55
H      17.66       4.17      39.79
H      12.88       1.63      36.80
H      16.20       5.04      37.89
H      14.59       5.46      36.16
H      17.18      -1.16      34.77
H      11.94       1.40      43.27
H      12.33       3.01      34.78
H      17.60       0.04      43.11
H      22.30      22.92      14.14
H      22.32      19.19      12.16
H      14.07      27.29      18.99
H      14.10      27.47      23.21
H       5.76      29.35      12.82
H       5.82      32.89      10.52
H       9.86       4.42      31.33
H       9.96       8.20      33.21
H       1.48       0.09      26.42
H       1.58      -0.13      22.21
H      18.11      -1.94      32.66
H      18.17      -5.50      34.93
H       1.24      15.38      21.46
H      22.76      13.06      22.45
H      17.96      37.48      21.73
H      14.34     -11.89      23.30
H       9.54      26.76       2.65
H       6.16      27.08       0.15
H      13.69      11.90      23.94
H      10.31      14.22      22.95
H       5.26      -9.98      23.53
H       1.89     -12.01      22.01
H      21.98       0.70      42.86
H      18.60      26.04       0.90
N      23.42      22.77      12.43
N      23.44      20.71      11.33
N      24.67      22.42      10.46
N      21.33      20.38      14.21
N      15.18      25.87      19.99
N      15.20      25.98      22.33
N      16.41      24.34      21.29
N      13.12      28.65      21.14
N       6.90      30.90      13.52
N       6.94      32.87      12.25
N       8.18      32.78      14.17
N       4.79      30.53      10.57
N      11.00       4.60      33.03
N      11.06       6.69      34.07
N      12.27       4.98      34.98
N       8.92       6.97      31.20
N       2.64       1.47      25.43
N       2.69       1.35      23.10
N       3.92       2.97      24.14
N       0.53      -1.26      24.27
N      19.23      -3.50      31.93
N      19.26      -5.48      33.19
N      20.47      -5.39      31.25
N      17.17      -3.13      34.91
N       1.58      13.56      22.35
N      24.60      12.28      22.90
N       1.76      11.65      23.68
N      23.56      15.45      21.53
N      18.05     -12.17      22.87
N      16.17     -11.09      23.74
N      18.23     -10.08      23.90
N      15.39      37.47      21.66
N       9.87      26.90       0.63
N       8.00       1.42      43.70
N      10.05       1.06      42.76
N       6.96      26.66       2.68
N      14.02      13.72      23.05
N      12.15      15.00      22.51
N      14.20      15.65      21.74
N      11.11      11.83      23.87
N       5.61     -11.66      22.40
N       3.98      38.55      21.56
N       6.04      37.56      21.40
N       2.69     -10.02      23.63
N      22.32      26.23       0.43
N      20.44      26.05       1.81
N      22.50      26.41       2.76
N      19.41       0.79      42.83
