150

Co      18.92       9.99       9.23
Co      14.32       7.37      13.53
Co      11.53       9.88       3.78
Co      14.50      10.16       1.65
Co      17.29       7.50      11.37
Co      10.03       7.34       5.96
H       6.34       0.59       0.76
H      16.69       9.26       5.91
H      14.88       6.22       8.40
H      22.19      10.11       6.82
H       8.70       3.74       9.75
H      22.48      16.83      14.38
H      11.16      13.86       4.34
H      19.14      12.36      13.47
H      12.16       8.14       9.22
H      24.61      13.36      12.97
H      13.92      11.19       6.71
H       9.29       8.34       0.82
H      20.59       5.29      11.90
H      19.54       9.00      14.29
H       6.66       7.26       8.33
H      20.15      13.63       5.40
H      17.66       3.55      10.81
H       4.21       4.05       2.18
H      15.80       9.87      12.37
H       8.25      12.09       3.24
H      15.90       9.97      10.32
H       9.70       5.05       1.65
H      12.93       7.46       4.80
H      13.07       7.50       2.75
C      14.17       8.13      11.11
C      14.03       8.98       9.91
C      18.13      12.01      13.64
C       5.76       3.26       0.21
C       7.55      12.02       4.08
C      12.40      13.85       2.56
C      21.09      11.87       6.23
C      20.08       7.39      10.28
C       5.98       5.35      11.07
C       7.90       4.47       9.87
C       8.76       9.96       4.85
C      15.55      10.98      14.17
C      24.35      14.41      12.85
C       5.68       1.06       1.49
C      15.92       7.72       7.23
C      10.62       6.83       3.54
C      16.25      10.60      13.03
C      20.12      11.85       7.37
C      16.40       3.57      12.58
C      20.95      12.90       5.29
C      24.83      15.16      11.78
C      14.29      10.25      14.55
C      12.76      12.41       2.71
C      15.02      10.70       8.52
C      16.95       7.97       8.30
C      10.72       5.39       1.48
C      22.09      10.91       6.09
C      17.42      12.41      14.79
C      23.14      16.36      13.66
C      13.94      10.61       7.63
C      11.43       4.96       0.34
C      16.21      11.50       8.17
C      16.04       5.02      12.42
C      12.94       8.88       9.04
C      11.80       9.36       0.72
C       3.99       2.25       3.37
C       7.14       3.35      11.96
C      11.32       6.31       2.35
C      12.55       5.96       6.99
C      14.87       6.82       7.49
C      17.05       7.99      14.44
C       5.31       2.41       1.35
C      23.03      14.18      14.94
C      13.78       7.53       5.46
C      15.90       8.53       6.08
C      14.69       9.26       3.99
C       7.67      10.97       5.01
C      25.70      14.54      10.76
C      15.05       9.90       9.66
C      17.27       2.97      11.65
C       7.77       5.49       8.92
C      16.13      11.91      15.05
C      12.72       5.45       0.08
C      23.51      15.02      13.80
C      12.90       9.70       7.90
C       7.00       4.41      10.94
C      13.78       6.74       6.61
C       6.76       6.46       9.05
C       3.12       2.87       4.39
C       4.33       0.90       3.50
C      21.70      14.02       3.19
C      14.82       8.42       5.19
C      13.31       6.36       0.96
C      21.17       6.38      10.13
C      18.22      10.58      11.56
C       8.74       5.48       7.78
C      21.84      12.96       4.21
C      11.86       9.46       6.86
C      17.53      11.09      12.76
C      14.58       7.04       0.61
C       4.47       3.00       2.30
C      12.61       6.77       2.09
O      15.36       0.71       2.29
O      20.21      10.77       8.17
O      19.19       7.13      11.17
O      18.22       4.12       4.49
O      17.82       2.21       5.29
O      15.07       5.49      13.09
O      13.53       9.33       3.37
O      16.91       7.29       9.36
O      15.36      16.12      12.06
O      15.86       7.61      14.73
O      13.04       9.63       0.48
O      11.57       8.21      15.11
O      13.06       6.57      14.61
O      17.74       9.52      10.95
O      16.77       5.66      11.59
O      11.95      10.09       5.76
O      13.19       7.56      11.67
O      11.09       7.91       4.13
O      13.69      11.96       1.96
O      17.65       7.77      13.34
O      17.77       8.93       8.06
O      15.06       8.00       1.35
O       8.73       8.89       5.52
O       9.66       6.24       4.10
O      11.00      15.20       9.86
O      15.66       9.86       3.43
O      20.11       8.42       9.54
O       9.46       4.52       7.55
O      11.49       6.11       6.20
O      13.48      16.66      12.86
O      12.11      11.74       3.58
O      21.53      10.60      14.71
O      19.20      11.15      11.00
O      15.33       8.04      11.71
O      12.54       5.24       7.99
O      10.60      13.29      10.67
O      16.26      12.20       7.13
O      15.82      10.93       0.59
O       7.33       6.73       0.42
O      17.28      11.48       8.91
O      10.97       8.59       7.15
O       9.68      10.30       4.00
O      13.93       9.24      13.76
O      11.18       9.65       1.78
O      13.49       1.26       3.10
O       8.73       6.61       7.05
O      17.13       9.19       0.00
O      19.31      12.75       7.56
