33

Zn       7.01       8.86      10.74
Zn       7.29       9.35       7.65
Zn      11.55       5.11       7.19
Zn      10.29       4.77       9.87
Zn       8.76       7.01       8.62
Zn       7.94       3.96       9.01
Zn      10.27       9.61       7.60
H       8.17       5.77      10.76
H       8.95       8.01       6.37
O       9.64      11.22       6.61
O       7.55      10.49       6.00
O      11.44       9.55       9.09
O       8.92       8.38       7.29
O       7.63       9.19      12.58
O       7.16       7.96       9.10
O       5.70      10.32       8.20
O       6.52      10.79      10.28
O      12.00       3.78       9.75
O      13.17       5.11       8.35
O      11.54       3.25       6.82
O      10.43       6.08       8.24
O       9.78       3.64      11.49
O       7.90       2.75      10.54
O       6.96       3.76       7.45
O       8.56       5.58       9.87
C       7.85       8.21      13.42
C       5.79      11.13       9.23
C      13.13       4.36       9.43
C      10.30       2.88       6.97
C       8.74       2.84      11.55
C       6.50       4.82       6.83
C       8.62      11.22       5.77
C      11.03       9.12      10.26
