16

F       4.48       3.15      18.38
F       3.69       2.51      20.85
F       4.93      -2.03      20.11
F       5.72      -1.39      17.59
C       4.59       1.86      18.76
C       4.18       1.53      20.05
C       4.25       0.22      20.51
C       4.77      -0.76      19.66
C       5.17      -0.44      18.37
C       5.06       0.87      17.89
C       5.42       1.13      16.45
C       3.85      -0.15      21.91
O       2.87      -0.92      22.05
O       4.61       0.34      22.82
O       4.73       0.46      15.57
O       6.36       1.87      16.12
