28

H      15.05       8.69       3.89
H      15.89       8.64       1.54
H      17.44       8.11       0.09
H      18.75       6.93       0.47
C      17.82       6.14       2.76
C      17.33       6.15       4.09
C      16.36       7.04       4.52
C      15.81       7.97       3.60
C      16.27       7.97       2.31
C      17.67       7.12       0.50
S      15.52       8.33      -1.67
H      16.56       8.22      -4.34
H      18.12       6.62      -5.46
S      19.01       5.07       2.16
H      18.45       4.51      -1.70
H      17.22       5.05       0.02
H      15.84       6.18      -0.16
H      19.05       4.67      -4.10
N      17.19       6.18      -1.73
C      16.62       7.26      -2.44
C      16.99       7.39      -3.80
C      18.39       5.41      -3.66
C      18.06       5.30      -2.34
C      16.92       6.04      -0.31
N      17.26       7.10       1.90
C      17.85       6.49      -4.41
H      17.78       5.42       4.77
H      16.01       7.01       5.55
