12

N       2.23       0.95       8.11
N       2.39      -1.26       8.54
O       3.80       2.48       6.41
O       5.61       1.27       6.81
O       5.71      -1.55       7.10
O       4.24      -3.08       7.84
H       0.65      -0.13       9.09
C       3.46       0.51       7.64
C       3.55      -0.86       7.92
C       1.63      -0.14       8.64
C       4.36       1.44       6.93
C       4.58      -1.87       7.60
