13

C       6.91      10.66      11.31
C       6.83      11.07      12.65
C       8.81      11.57      11.86
C       5.96      10.10      10.36
N       8.17      10.99      10.83
N       8.03      11.64      12.96
C       5.78      10.99      13.71
O       6.32       9.94       9.17
O       4.75       9.81      10.78
O       4.71      10.39      13.56
O       6.14      11.62      14.81
H       9.83      11.92      11.84
H       4.13       9.74       9.97
