12

O       3.04      10.00       8.92
O       1.24       8.79       8.51
O       1.14       5.97       8.24
O       2.61       4.44       7.49
C       3.38       8.03       7.69
C       3.29       6.66       7.41
C       5.21       7.38       6.69
C       2.49       8.96       8.40
H       6.19       7.40       6.23
C       2.27       5.65       7.74
N       4.61       8.47       7.22
N       4.46       6.27       6.79
