12

N      11.41       6.57       0.45
N      11.26       8.77       0.88
C      10.18       7.01      -0.01
C      10.10       8.38       0.27
C      12.01       7.65       0.98
C       9.29       6.08      -0.73
C       9.07       9.39      -0.05
O       9.85       5.04      -1.23
O       8.04       6.25      -0.87
O       7.94       9.07      -0.54
O       9.41      10.60       0.20
H      13.00       7.64       1.43
