696

H      21.35      13.23       8.33
H      19.79      14.52       7.06
H      19.98      15.05      11.88
H      18.44      16.35      10.63
H      16.28      18.57      10.59
H      14.86      20.04      11.78
H      14.38      19.67       6.97
H      12.97      21.16       8.18
H      16.17      19.01       4.18
H      16.19      18.99       1.81
H      18.07      15.21       1.85
H      18.11      15.25       4.22
H      32.37      40.50       8.32
H      33.92      39.21       7.06
H      33.74      38.68      11.87
H      35.27      37.38      10.63
H      37.43      35.16      10.59
H      38.85      33.69      11.78
H      39.33      34.06       6.97
H      40.74      32.57       8.18
H      37.54      34.72       4.18
H      37.52      34.74       1.81
H      35.65      38.52       1.84
H      35.61      38.48       4.22
H      40.49      21.35      37.03
H      39.21      19.80      35.77
H      38.67      19.98      40.58
H      37.37      18.45      39.33
H      35.15      16.29      39.29
H      33.68      14.87      40.49
H      34.05      14.39      35.68
H      32.56      12.98      36.89
H      34.71      16.19      32.88
H      34.73      16.20      30.52
H      38.51      18.07      30.55
H      38.47      18.11      32.92
H      13.22      32.37      37.03
H      14.51      33.93      35.77
H      15.05      33.74      40.59
H      16.34      35.28      39.34
H      18.56      37.44      39.30
H      20.03      38.86      40.49
H      19.66      39.34      35.68
H      21.15      40.75      36.89
H      19.00      37.55      32.89
H      18.98      37.53      30.52
H      15.20      35.65      30.55
H      15.24      35.61      32.92
H      32.59      12.95      22.23
H      34.09      14.35      23.43
H      33.69      14.85      18.63
H      35.18      16.27      19.82
H      37.34      18.48      19.78
H      38.64      20.01      18.53
H      39.17      19.84      23.34
H      40.46      21.38      22.08
H      37.52      19.05      26.21
H      37.52      19.05      28.58
H      35.75      15.21      28.58
H      35.70      15.24      26.21
H      21.12      40.78      22.23
H      19.62      39.38      23.43
H      20.02      38.88      18.63
H      18.54      37.46      19.82
H      16.37      35.25      19.78
H      15.07      33.72      18.53
H      14.54      33.90      23.34
H      13.25      32.35      22.08
H      16.18      34.69      26.21
H      16.19      34.69      28.58
H      17.97      38.51      28.58
H      18.02      38.49      26.21
H      12.94      21.13      50.94
H      14.34      19.63      52.14
H      14.84      20.03      47.34
H      16.26      18.55      48.53
H      18.47      16.38      48.49
H      20.00      15.08      47.23
H      19.83      14.55      52.05
H      21.37      13.25      50.78
H      19.03      16.19      54.92
H      19.03      16.19      57.29
H      15.21      17.98      57.28
H      15.23      18.03      54.92
H      40.77      32.60      50.94
H      39.37      34.10      52.14
H      38.87      33.70      47.34
H      37.45      35.18      48.53
H      35.24      37.35      48.49
H      33.71      38.65      47.24
H      33.89      39.18      52.05
H      32.34      40.47      50.79
H      34.68      37.54      54.92
H      34.68      37.53      57.29
H      38.51      35.75      57.29
H      38.48      35.71      54.92
H      11.39      32.34      20.27
H      10.14      30.82      18.92
H      14.92      31.21      18.26
H      13.68      29.70      16.91
H       7.55      27.99      17.00
H      11.33      26.57      15.80
H       7.83      24.74      14.34
H      13.10      24.07      13.17
H       3.50      29.00      16.18
H       1.12      28.85      16.20
H       1.34      25.00      14.49
H       3.72      25.14      14.46
H      14.49      22.55      11.97
H      11.10      21.08       9.92
H       9.71      22.61      11.12
H       5.60      28.09      15.05
H       5.75      25.34      15.91
H      11.36      29.23      15.98
H       9.87      28.35      18.29
H       9.77      24.87      12.40
H      11.16      24.13      14.83
H      42.32      21.40      20.28
H      43.57      22.91      18.92
H      38.79      22.52      18.26
H      40.03      24.03      16.91
H      46.16      25.73      17.00
H      42.38      27.16      15.80
H      45.88      28.99      14.34
H      40.61      29.65      13.17
H      50.21      24.73      16.18
H      52.59      24.88      16.20
H      52.37      28.73      14.49
H      50.00      28.59      14.46
H      39.22      31.17      11.97
H      42.61      32.65       9.92
H      44.00      31.12      11.12
H      48.11      25.63      15.05
H      47.96      28.39      15.91
H      42.35      24.50      15.98
H      43.84      25.38      18.29
H      43.94      28.86      12.40
H      42.55      29.60      14.82
H      21.39      11.39      48.98
H      22.91      10.14      47.63
H      22.51      14.93      46.97
H      24.02      13.69      45.61
H      25.73       7.56      45.71
H      27.15      11.34      44.51
H      28.98       7.84      43.04
H      29.65      13.11      41.88
H      24.72       3.51      44.88
H      24.87       1.13      44.91
H      28.72       1.35      43.20
H      28.58       3.72      43.17
H      31.16      14.50      40.68
H      32.64      11.11      38.63
H      31.11       9.72      39.83
H      25.63       5.61      43.76
H      28.38       5.76      44.62
H      24.49      11.37      44.69
H      25.38       9.88      47.00
H      28.85       9.78      41.11
H      29.59      11.17      43.53
H      32.33      42.33      48.98
H      30.81      43.58      47.63
H      31.20      38.79      46.97
H      29.69      40.04      45.62
H      27.99      46.17      45.71
H      26.56      42.39      44.51
H      24.73      45.89      43.05
H      24.07      40.62      41.88
H      28.99      50.22      44.89
H      28.84      52.60      44.91
H      24.99      52.38      43.20
H      25.13      50.01      43.17
H      22.55      39.23      40.68
H      21.07      42.62      38.63
H      22.60      44.01      39.83
H      28.09      48.12      43.76
H      25.33      47.97      44.62
H      29.22      42.36      44.69
H      28.34      43.85      47.00
H      24.86      43.95      41.11
H      24.12      42.56      43.53
H      42.35      21.39      38.84
H      43.59      22.92      40.19
H      38.80      22.50      40.84
H      40.03      24.02      42.19
H      46.16      25.74      42.12
H      42.38      27.16      43.31
H      45.88      28.98      44.78
H      40.61      29.66      45.95
H      50.21      24.73      42.94
H      52.59      24.88      42.91
H      52.37      28.73      44.62
H      50.00      28.59      44.65
H      39.23      31.19      47.16
H      42.63      32.66      49.19
H      44.01      31.12      47.99
H      48.11      25.63      44.06
H      47.96      28.39      43.21
H      42.35      24.50      43.13
H      43.85      25.38      40.82
H      43.94      28.86      46.72
H      42.55      29.59      44.30
H      11.36      32.34      38.84
H      10.12      30.81      40.20
H      14.91      31.23      40.84
H      13.68      29.71      42.20
H       7.55      27.99      42.12
H      11.33      26.57      43.31
H       7.83      24.74      44.78
H      13.10      24.06      45.95
H       3.50      29.00      42.94
H       1.12      28.85      42.91
H       1.34      25.00      44.62
H       3.72      25.14      44.65
H      14.48      22.54      47.15
H      11.08      21.07      49.19
H       9.70      22.61      47.99
H       5.60      28.10      44.06
H       5.75      25.34      43.21
H      11.36      29.23      43.13
H       9.86      28.35      40.82
H       9.77      24.87      46.72
H      11.16      24.13      44.30
H      32.34      42.36      10.13
H      30.81      43.60      11.49
H      31.22      38.81      12.13
H      29.70      40.04      13.48
H      27.98      46.17      13.41
H      26.56      42.39      14.61
H      24.74      45.89      16.07
H      24.06      40.62      17.24
H      28.99      50.22      14.23
H      28.84      52.60      14.20
H      24.99      52.38      15.91
H      25.13      50.00      15.94
H      22.53      39.24      18.45
H      21.07      42.64      20.48
H      22.60      44.02      19.28
H      28.09      48.12      15.35
H      25.33      47.97      14.50
H      29.22      42.36      14.42
H      28.34      43.86      12.11
H      24.86      43.95      18.01
H      24.13      42.56      15.59
H      21.38      11.37      10.13
H      22.91      10.13      11.49
H      22.49      14.92      12.13
H      24.01      13.69      13.49
H      25.73       7.56      13.41
H      27.15      11.34      14.61
H      28.98       7.84      16.08
H      29.66      13.11      17.25
H      24.72       3.51      14.23
H      24.87       1.13      14.21
H      28.73       1.35      15.91
H      28.58       3.72      15.94
H      31.18      14.49      18.45
H      32.65      11.09      20.49
H      31.11       9.71      19.29
H      25.63       5.61      15.35
H      28.38       5.76      14.50
H      24.49      11.37      14.42
H      25.38       9.88      12.11
H      28.85       9.78      18.01
H      29.59      11.17      15.59
C      18.04      16.39       7.96
C      17.16      17.16       5.88
C      16.34      18.07       7.93
C      17.14      17.13       4.45
C      17.70      16.05       3.73
C      17.68      16.03       2.32
C      17.12      17.10       1.57
C      16.57      18.18       2.30
C      16.57      18.19       3.70
C      18.95      15.57       8.71
C      19.81      14.64       8.08
C      20.73      13.87       8.83
C      20.83      14.01      10.23
C      19.96      14.93      10.86
C      19.04      15.69      10.12
C      15.49      18.96       8.65
C      15.59      19.10      10.06
C      14.76      19.98      10.77
C      13.77      20.75      10.10
C      13.66      20.61       8.70
C      14.50      19.73       7.99
C      35.67      37.34       7.96
C      36.56      36.57       5.88
C      37.37      35.66       7.93
C      36.57      36.60       4.45
C      36.01      37.68       3.73
C      36.03      37.70       2.32
C      36.59      36.63       1.57
C      37.14      35.55       2.30
C      37.14      35.54       3.70
C      34.76      38.15       8.71
C      33.90      39.09       8.08
C      32.99      39.86       8.82
C      32.89      39.72      10.23
C      33.76      38.80      10.86
C      34.67      38.04      10.12
C      38.23      34.77       8.65
C      38.12      34.63      10.06
C      38.96      33.74      10.77
C      39.94      32.97      10.10
C      40.06      33.12       8.70
C      39.21      34.00       7.99
C      37.34      18.05      36.66
C      36.56      17.16      34.58
C      35.65      16.35      36.64
C      36.59      17.15      33.16
C      37.67      17.70      32.43
C      37.69      17.69      31.03
C      36.62      17.13      30.28
C      35.54      16.59      31.00
C      35.53      16.58      32.41
C      38.15      18.96      37.41
C      39.08      19.82      36.78
C      39.85      20.73      37.53
C      39.71      20.83      38.94
C      38.79      19.96      39.57
C      38.03      19.05      38.82
C      34.76      15.50      37.36
C      34.62      15.60      38.76
C      33.73      14.77      39.47
C      32.97      13.78      38.81
C      33.11      13.67      37.41
C      33.99      14.51      36.70
C      16.38      35.68      36.67
C      17.15      36.57      34.59
C      18.06      37.38      36.64
C      17.12      36.58      33.16
C      16.04      36.02      32.43
C      16.02      36.04      31.03
C      17.09      36.60      30.28
C      18.17      37.15      31.01
C      18.18      37.15      32.41
C      15.57      34.77      37.42
C      14.63      33.91      36.79
C      13.86      32.99      37.53
C      14.00      32.89      38.94
C      14.92      33.76      39.57
C      15.69      34.68      38.83
C      18.95      38.24      37.36
C      19.09      38.13      38.76
C      19.97      38.96      39.48
C      20.74      39.95      38.81
C      20.60      40.07      37.41
C      19.72      39.22      36.70
C      35.68      16.33      22.48
C      36.58      17.16      24.53
C      37.31      18.08      22.45
C      36.61      17.14      25.96
C      36.09      16.05      26.69
C      36.11      16.04      28.10
C      36.63      17.13      28.84
C      37.16      18.22      28.10
C      37.15      18.22      26.69
C      34.80      15.46      21.76
C      34.03      14.47      22.42
C      33.15      13.63      21.71
C      32.99      13.76      20.31
C      33.76      14.74      19.64
C      34.65      15.57      20.35
C      38.11      18.99      21.70
C      37.99      19.08      20.29
C      38.76      19.99      19.54
C      39.68      20.86      20.17
C      39.82      20.77      21.58
C      39.04      19.86      22.33
C      18.03      37.40      22.48
C      17.14      36.57      24.53
C      16.40      35.65      22.45
C      17.10      36.59      25.96
C      17.63      37.68      26.69
C      17.61      37.69      28.10
C      17.08      36.60      28.84
C      16.55      35.51      28.10
C      16.55      35.51      26.69
C      18.92      38.27      21.76
C      19.69      39.25      22.42
C      20.57      40.09      21.71
C      20.72      39.97      20.31
C      19.95      38.99      19.64
C      19.07      38.16      20.35
C      15.60      34.74      21.70
C      15.72      34.65      20.29
C      14.95      33.74      19.54
C      14.03      32.87      20.17
C      13.89      32.97      21.58
C      14.67      33.88      22.33
C      16.32      18.04      51.18
C      17.15      17.14      53.24
C      18.07      16.41      51.16
C      17.13      17.11      54.66
C      16.04      17.63      55.40
C      16.03      17.61      56.81
C      17.12      17.09       0.13
C      18.21      16.56      56.81
C      18.21      16.56      55.40
C      15.45      18.93      50.47
C      14.47      19.70      51.13
C      13.63      20.58      50.42
C      13.75      20.73      49.01
C      14.73      19.96      48.35
C      15.56      19.08      49.06
C      18.98      15.61      50.41
C      19.07      15.73      49.00
C      19.98      14.96      48.25
C      20.85      14.04      48.88
C      20.75      13.90      50.29
C      19.84      14.67      51.03
C      37.40      35.69      51.18
C      36.56      36.58      53.24
C      35.64      37.32      51.16
C      36.58      36.62      54.66
C      37.67      36.10      55.40
C      37.68      36.12      56.81
C      36.59      36.64       0.13
C      35.50      37.17      56.81
C      35.50      37.16      55.40
C      38.26      34.80      50.47
C      39.25      34.03      51.13
C      40.09      33.15      50.42
C      39.96      33.00      49.02
C      38.98      33.77      48.35
C      38.15      34.65      49.06
C      34.73      38.12      50.41
C      34.64      38.00      49.00
C      33.73      38.77      48.25
C      32.86      39.69      48.88
C      32.96      39.83      50.29
C      33.87      39.05      51.04
C      13.28      31.93      19.41
C      11.89      31.77      19.59
C      11.15      30.87      18.78
C      11.79      30.10      17.79
C      13.18      30.24      17.62
C      13.92      31.14      18.41
C      11.09      29.24      16.94
C      10.14      28.37      17.34
C       9.53      27.46      16.48
C      10.30      26.54      15.74
C       9.69      25.55      14.93
C       8.28      25.48      14.89
C       7.48      26.38      15.63
C       8.12      27.36      16.43
C       6.10      26.23      15.64
C       5.24      27.21      15.31
C       3.85      27.07      15.34
C       3.06      28.14      15.82
C       3.18      25.92      14.85
C       1.78      25.84      14.87
C       0.98      26.90      15.36
C       1.65      28.06      15.83
C      10.49      24.62      14.27
C      10.44      24.38      12.95
C      11.26      23.47      12.29
C      12.66      23.43      12.51
C      10.72      22.60      11.32
C      11.54      21.71      10.60
C      12.94      21.66      10.83
C      13.48      22.54      11.80
C      40.43      21.81      19.41
C      41.82      21.96      19.59
C      42.56      22.86      18.79
C      41.93      23.63      17.79
C      40.53      23.49      17.62
C      39.79      22.59      18.41
C      42.62      24.49      16.94
C      43.57      25.36      17.34
C      44.18      26.27      16.48
C      43.41      27.19      15.74
C      44.02      28.18      14.92
C      45.43      28.25      14.89
C      46.23      27.34      15.62
C      45.59      26.37      16.43
C      47.61      27.50      15.64
C      48.47      26.52      15.31
C      49.86      26.65      15.34
C      50.65      25.58      15.82
C      50.53      27.80      14.85
C      51.93      27.89      14.87
C      52.73      26.82      15.36
C      52.06      25.67      15.83
C      43.22      29.11      14.27
C      43.27      29.35      12.95
C      42.45      30.26      12.29
C      41.05      30.29      12.50
C      42.99      31.13      11.32
C      42.17      32.02      10.60
C      40.78      32.07      10.83
C      40.23      31.19      11.80
C      21.79      13.29      48.11
C      21.95      11.90      48.29
C      22.85      11.16      47.49
C      23.63      11.79      46.50
C      23.48      13.19      46.33
C      22.58      13.92      47.12
C      24.48      11.10      45.65
C      25.35      10.15      46.04
C      26.26       9.54      45.19
C      27.19      10.31      44.44
C      28.17       9.70      43.63
C      28.24       8.29      43.60
C      27.34       7.49      44.33
C      26.36       8.13      45.14
C      27.49       6.11      44.35
C      26.52       5.25      44.02
C      26.65       3.86      44.05
C      25.58       3.07      44.53
C      27.80       3.19      43.56
C      27.88       1.79      43.58
C      26.82       0.99      44.07
C      25.66       1.66      44.54
C      29.10      10.50      42.98
C      29.34      10.45      41.66
C      30.25      11.27      40.99
C      30.28      12.67      41.21
C      31.12      10.73      40.02
C      32.01      11.55      39.31
C      32.06      12.95      39.54
C      31.18      13.49      40.50
C      31.92      40.44      48.12
C      31.76      41.83      48.30
C      30.86      42.57      47.50
C      30.09      41.93      46.50
C      30.23      40.54      46.33
C      31.13      39.80      47.12
C      29.23      42.63      45.65
C      28.36      43.58      46.05
C      27.45      44.19      45.19
C      26.53      43.42      44.44
C      25.54      44.03      43.63
C      25.47      45.44      43.60
C      26.38      46.24      44.33
C      27.35      45.60      45.14
C      26.22      47.62      44.35
C      27.20      48.48      44.02
C      27.07      49.87      44.05
C      28.14      50.66      44.53
C      25.92      50.54      43.56
C      25.83      51.94      43.58
C      26.90      52.74      44.07
C      28.05      52.07      44.54
C      24.61      43.23      42.98
C      24.37      43.28      41.66
C      23.46      42.46      41.00
C      23.43      41.06      41.21
C      22.59      43.00      40.02
C      21.70      42.18      39.31
C      21.65      40.79      39.54
C      22.53      40.24      40.51
C      40.45      21.79      39.70
C      41.84      21.95      39.52
C      42.58      22.85      40.33
C      41.93      23.63      41.32
C      40.54      23.48      41.48
C      39.81      22.57      40.69
C      42.62      24.49      42.17
C      43.57      25.36      41.78
C      44.18      26.27      42.63
C      43.41      27.19      43.38
C      44.01      28.17      44.19
C      45.43      28.25      44.23
C      46.22      27.34      43.49
C      45.59      26.37      42.69
C      47.61      27.50      43.48
C      48.47      26.52      43.81
C      49.86      26.65      43.77
C      50.65      25.58      43.29
C      50.53      27.80      44.26
C      51.93      27.89      44.24
C      52.73      26.82      43.76
C      52.06      25.67      43.29
C      43.22      29.11      44.85
C      43.27      29.35      46.17
C      42.45      30.26      46.83
C      41.06      30.30      46.62
C      43.01      31.13      47.80
C      42.19      32.03      48.52
C      40.79      32.09      48.29
C      40.24      31.21      47.33
C      13.26      31.94      39.70
C      11.87      31.78      39.53
C      11.14      30.88      40.33
C      11.78      30.10      41.32
C      13.18      30.25      41.49
C      13.90      31.16      40.69
C      11.09      29.24      42.17
C      10.14      28.37      41.78
C       9.53      27.46      42.63
C      10.31      26.54      43.38
C       9.70      25.55      44.19
C       8.28      25.48      44.23
C       7.49      26.38      43.49
C       8.12      27.36      42.69
C       6.10      26.23      43.48
C       5.24      27.21      43.81
C       3.85      27.07      43.77
C       3.06      28.14      43.29
C       3.18      25.92      44.26
C       1.78      25.84      44.24
C       0.98      26.90      43.76
C       1.65      28.06      43.28
C      10.49      24.62      44.85
C      10.44      24.38      46.17
C      11.26      23.47      46.83
C      12.66      23.43      46.62
C      10.71      22.60      47.80
C      11.52      21.70      48.52
C      12.92      21.64      48.29
C      13.47      22.52      47.33
C      31.93      40.46      10.99
C      31.77      41.85      10.82
C      30.87      42.58      11.62
C      30.09      41.94      12.61
C      30.24      40.54      12.78
C      31.15      39.82      11.98
C      29.23      42.63      13.46
C      28.36      43.58      13.07
C      27.45      44.19      13.93
C      26.53      43.41      14.67
C      25.55      44.02      15.49
C      25.47      45.44      15.52
C      26.38      46.23      14.78
C      27.35      45.60      13.98
C      26.22      47.62      14.77
C      27.20      48.48      15.10
C      27.07      49.87      15.06
C      28.14      50.66      14.58
C      25.92      50.54      15.55
C      25.83      51.94      15.53
C      26.90      52.74      15.05
C      28.05      52.07      14.58
C      24.61      43.23      16.14
C      24.37      43.28      17.46
C      23.46      42.46      18.12
C      23.42      41.06      17.91
C      22.59      43.01      19.09
C      21.69      42.20      19.81
C      21.63      40.80      19.58
C      22.51      40.25      18.62
C      21.78      13.27      10.99
C      21.95      11.88      10.82
C      22.85      11.15      11.62
C      23.62      11.79      12.61
C      23.47      13.19      12.78
C      22.56      13.91      11.98
C      24.48      11.10      13.46
C      25.35      10.15      13.07
C      26.26       9.54      13.93
C      27.18      10.32      14.68
C      28.17       9.71      15.49
C      28.24       8.29      15.52
C      27.34       7.50      14.78
C      26.36       8.13      13.98
C      27.49       6.11      14.77
C      26.52       5.25      15.10
C      26.65       3.86      15.07
C      25.58       3.07      14.59
C      27.80       3.19      15.55
C      27.88       1.79      15.54
C      26.82       0.99      15.05
C      25.66       1.66      14.58
C      29.10      10.50      16.14
C      29.34      10.45      17.47
C      30.25      11.27      18.13
C      30.30      12.66      17.91
C      31.12      10.71      19.10
C      32.02      11.53      19.81
C      32.08      12.93      19.58
C      31.20      13.48      18.62
N      17.99      16.36       6.60
N      16.34      18.00       6.57
N      17.21      17.25       8.59
N      35.72      37.37       6.60
N      37.37      35.73       6.57
N      36.51      36.48       8.59
N      37.36      18.00      35.30
N      35.72      16.35      35.28
N      36.47      17.22      37.29
N      16.35      35.73      35.30
N      17.99      37.38      35.28
N      17.24      36.51      37.29
N      35.76      16.32      23.84
N      37.34      18.03      23.81
N      36.47      17.22      21.82
N      17.96      37.41      23.83
N      16.37      35.70      23.81
N      17.24      36.51      21.82
N      16.31      17.96      52.54
N      18.02      16.38      52.52
N      17.21      17.25      50.53
N      37.40      35.77      52.54
N      35.69      37.35      52.52
N      36.50      36.48      50.53
