97

P      -0.65       3.79       6.22
P       0.11       8.88      -6.22
P       3.92       6.64       5.08
P      -4.45       6.01      -5.09
H       3.83       9.49       6.28
H       2.01      10.83       5.07
H       2.38       8.60       5.73
H       3.67      11.03       4.45
H       2.20      11.82      -4.90
H      -3.20       3.80      -5.60
H      -4.66       2.79      -5.73
H      -3.19       1.59      -4.27
H      -3.70       3.61       1.76
H      -4.53       4.32      -0.36
H      -2.30       7.37      -6.37
H      -4.25       5.50      -2.42
H       2.31      13.00      -6.27
H       1.44       8.91      -3.66
H       3.24       8.90      -1.99
H       4.10       8.24       0.21
H       3.80       7.11       2.34
H       1.84       5.12       6.25
H       0.88      13.01      -5.17
H       1.65      10.80      -7.15
H       0.09       0.16       7.72
H       0.93      -0.50       3.72
H       1.15       1.06       4.49
H       1.58      -0.44       5.41
H       3.29       9.60       2.54
H       1.67       9.10       3.16
H      -1.79       0.86       6.69
H       1.96      10.78       2.60
H      -2.29       2.61      -2.45
H      -5.21       1.59      -3.35
H      -2.93       3.74       3.73
H      -1.25       0.03       4.41
H       0.51      13.02      -7.95
H      -0.31      11.46      -8.33
H      -0.91      12.51      -6.98
H      -0.72      -1.06       5.74
C       2.84      10.32       4.54
C      -1.80       4.70       1.65
C      -3.06       4.26       1.19
C      -3.55       4.67      -0.05
C      -2.78       5.46      -0.89
C      -1.49       5.87      -0.48
C      -3.25       5.80      -2.16
C      -2.43       6.45      -3.09
C      -1.16       6.92      -2.67
C      -0.70       6.63      -1.35
C       3.29       9.13       5.38
C      -2.82       6.61      -4.44
C      -1.98       7.25      -5.34
C      -0.78       7.85      -4.93
C      -0.35       7.69      -3.57
C       0.26       5.92       1.24
C       0.73       5.59       2.56
C      -0.11       4.87       3.46
C      -1.32       4.34       2.94
C       0.85       8.23      -3.06
C       1.34       7.87      -1.78
C       0.57       7.06      -0.93
C       1.06       6.70       0.36
C       2.61       8.29      -1.35
C       0.89      11.37      -6.58
C       3.11       7.91      -0.09
C       2.33       7.12       0.78
C       2.00       6.08       2.98
C       2.81       6.78       2.06
C       2.38       5.91       4.34
C       1.51       5.27       5.23
C       0.27       4.76       4.86
C       1.62      12.36      -5.68
C      -0.79       1.03       6.26
C      -0.55      -0.08       5.26
C       0.86       0.01       4.69
C       2.41       9.92       3.13
C      -0.01      12.14      -7.52
C      -4.08       3.42      -5.03
C      -3.60       2.55      -3.86
C      -1.01       5.51       0.81
O      -2.13       4.22       6.02
O      -0.09       4.01       7.67
O      -5.56       6.92      -4.54
O      -4.95       4.42      -4.55
O       4.04       6.62       6.83
O       5.19       5.97       4.52
O      -0.75       2.19       5.50
O       4.15       8.31       4.62
O       0.20       1.01       7.22
O      -2.57       3.21      -3.19
O      -4.64       2.30      -2.96
O      -2.01       3.40       3.64
O       1.59       8.45      -6.02
O      -0.45       8.66      -7.67
O      -4.59       6.06      -6.83
O       0.09      10.57      -5.76
