69

P       3.80       7.55      10.29
P      -0.89       8.97       7.42
P       6.18      12.74      10.97
P       1.52      13.98       8.12
H       4.93       5.84      14.58
H       3.38       6.72      14.49
H       2.91      14.89       6.01
H       1.71      14.96       3.47
H       3.14      13.95       3.95
H       6.59      14.02      13.42
H       4.92      13.31      13.38
H       7.29      12.48      15.15
H       5.75      13.23      15.66
H       5.76      11.54      15.02
H      -0.08      10.01       4.80
H       0.39      11.54       7.77
H       4.90      10.11      10.72
H      -2.35       8.68       3.20
H      -2.55      10.36       3.72
H       6.19       8.00      14.25
H       4.61       8.89      14.22
H       5.13       8.02      15.71
H       0.19      15.49       5.48
H       1.25      12.93       2.93
H      -1.57      10.16       1.68
H       0.49       7.74       5.23
H      -1.17       7.15       4.89
H      -0.10       7.73       3.56
H       5.39      14.52       9.03
H       1.18       7.04       7.14
H       5.49       6.48      12.25
H       3.88       5.65      12.34
C      -0.93       9.29       4.76
C      -1.79       9.59       3.51
C       1.91      14.64       5.62
C       2.07      14.16       4.16
C       3.82      13.07       9.45
C       1.73       8.52       8.52
C       1.10      10.84       8.18
C       0.82       9.49       8.01
C       2.83       8.90       9.35
C       3.12      10.31       9.47
C       2.26      11.28       8.85
C       6.00      13.09      13.52
C       2.58      12.67       8.91
C       4.63      12.14      10.13
C       4.26      10.79      10.17
C       4.44       6.57      12.60
C       4.43       6.71      14.13
C       5.14       7.98      14.60
C       6.21      12.55      14.92
C      -0.40       7.88       4.61
C       4.32      14.48       9.22
C       1.48       7.09       8.19
O       7.43      12.26      10.20
O       6.43      12.12      12.59
O       3.27       6.10       9.93
O       0.02      13.93       8.61
O       1.34      13.64       6.41
O       3.84       7.71      12.03
O       5.26       7.81       9.89
O      -0.97       7.23       7.49
O      -1.89       9.44       8.49
O       1.12      15.79       5.67
O       1.37      12.99       3.91
O      -0.97       9.99       2.45
O      -1.71       9.46       5.93
O       2.01      15.64       8.58
O       6.25      14.50      11.02
