22

Gd      12.43       3.44       8.77
Gd      12.52      -0.38      12.54
C      10.39       1.24      10.29
C      10.50       4.75       7.09
C      15.15       1.49       6.04
C      14.14       2.23       6.86
C      14.56       1.81      11.02
C      14.45      -1.70      14.22
C       9.80       1.56      15.27
C      10.81       0.82      14.45
O      10.91       1.77       9.28
O      11.01       0.62      11.19
O      11.66       4.58       6.65
O      10.25       4.54       8.31
O      14.39       3.41       7.25
O      13.07       1.65       7.21
O      14.03       1.29      12.03
O      13.94       2.44      10.12
O      13.28      -1.52      14.66
O      14.70      -1.48      13.00
O      10.56      -0.35      14.06
O      11.88       1.41      14.10
