102

Cd      14.63       1.41       8.49
Cd      14.63       7.30      11.93
Cd       7.80      12.83       5.13
Cd       7.79       6.94       1.68
Cd      13.53       4.35      10.21
Cd       8.90       9.89       3.40
H      10.35       2.09      12.46
H       9.06      11.54       0.26
H      16.26       9.86      11.54
H      17.55      11.48      10.18
H      11.42      12.30      12.07
H      15.87       3.71      12.76
H      10.35       6.62       7.95
H       9.06       8.23       6.54
H      10.65      11.49       8.88
H      11.95       9.87      10.24
H      17.04       9.06       8.35
H      15.88       4.99       7.66
H      12.08      12.15       1.15
H      13.37       2.70      13.35
H       6.17       4.38       2.07
H       4.88       2.76       3.43
H      11.01       1.94       1.54
H       6.56      10.52       0.85
H      12.08       7.62       5.66
H      13.37       6.00       7.07
H      11.78       2.75       4.73
H      10.48       4.37       3.37
H       5.38       5.18       5.26
H       6.55       9.25       5.96
C      12.08       1.49      10.43
C      16.82      13.20      11.24
C      16.00      13.67      12.27
C      15.28      12.77      13.06
C      15.37      11.39      12.80
C      16.18      10.92      11.75
C      16.90      11.82      10.98
C       9.02       8.85       0.03
C      15.93       1.79      10.87
C       5.19       1.69      12.27
C      11.33      13.14      12.75
C      16.30       2.79      13.14
C      12.08       7.21       9.98
C      11.23       8.15       9.18
C      10.40       7.69       8.14
C       9.68       8.59       7.36
C       9.77       9.97       7.62
C      10.58      10.43       8.67
C      11.30       9.53       9.44
C       9.02      10.92       6.77
C      15.94       6.90       9.55
C      16.43       7.01       8.14
C      16.96       8.22       7.67
C      16.30       5.91       7.27
C      10.34      12.75       3.18
C       5.60       1.04       2.37
C       6.43       0.57       1.34
C       7.15       1.47       0.55
C       7.06       2.85       0.81
C       6.25       3.32       1.86
C       5.52       2.41       2.63
C      13.41       5.39      13.58
C       6.50      12.45       2.74
C      17.23      12.55       1.34
C      11.10       1.10       0.86
C       6.13      11.45       0.47
C      10.35       7.03       3.63
C      11.20       6.09       4.43
C      12.03       6.55       5.47
C      12.74       5.65       6.25
C      12.66       4.27       6.00
C      11.85       3.81       4.94
C      11.13       4.71       4.17
C      13.41       3.32       6.84
C       6.49       7.34       4.06
C       6.00       7.23       5.47
C       5.47       6.02       5.94
C       6.12       8.33       6.34
O      12.16       2.70      10.83
O      18.26      13.63       9.42
O       8.45       9.23       1.12
O      14.50       9.20      13.30
O      15.34       2.85      10.47
O      10.44      13.43      10.09
O      12.15       6.00       9.58
O      12.68       7.73      10.98
O       8.46      10.54       5.69
O       8.89      12.16       7.12
O      15.35       5.84       9.94
O      16.10       7.91      10.33
O      10.27      11.54       2.78
O       4.17       0.61       4.19
O      13.98       5.01      12.49
O       7.93       5.04       0.31
O       7.08      11.39       3.14
O      11.99       0.81       3.52
O      10.28       8.24       4.03
O       9.75       6.51       2.63
O      13.97       3.70       7.93
O      13.54       2.08       6.49
O       7.08       8.40       3.67
O       6.33       6.33       3.28
