726

Cd       7.96      17.25      14.40
Cd       6.54       6.94       5.79
Cd       0.90      15.75      24.30
Cd      11.19      16.11       2.28
Cd       7.46       3.83       3.19
Cd      14.04      13.07      22.10
Cd       0.90      26.73      11.14
Cd       8.44       0.71       0.59
Cd      17.75      25.20      10.12
Cd      11.19       5.13      15.44
Cd      16.83      24.93      20.80
Cd      17.75      14.47      22.98
Cd      17.92      11.45       9.56
Cd      14.04      24.08       8.90
Cd      18.25      14.61      12.19
Cd       7.46      17.39       3.60
Cd       7.63      20.41      17.03
Cd       6.50      23.44      19.56
Cd      16.79       8.42       7.03
Cd       3.75      18.80       4.49
Cd      18.73      31.15      25.99
Cd       3.75       7.78      17.69
Cd       7.46       6.66      16.47
Cd      17.75      28.04      23.39
H       1.60      18.67      23.54
H       1.78       2.45       2.04
H       1.16      15.17       1.30
H       3.06      21.69       3.52
H      13.53       5.85      17.93
H       8.70      11.90      14.77
H       4.74      27.23       7.04
H      13.12      21.24       9.90
H      20.04      25.57       2.26
H       1.35      17.02       9.01
H       3.71      27.94      11.85
H      10.35      13.59       0.14
H      16.15      25.82      15.47
H      13.12      13.55      19.12
H       9.82      23.43      23.88
H      20.30      21.50       6.76
H      14.91      21.51       6.94
H      11.69      26.64       9.02
H      19.43      17.54      12.40
H       5.20      26.07      18.28
H      13.34      11.70       4.42
H      18.99      15.20      17.52
H      10.01      21.37       6.64
H      19.33       7.88       5.02
H      11.91      21.55      25.88
H      15.26      18.39      26.40
H       5.15      23.40       1.29
H       3.33      24.33      11.09
H      14.00       3.92      14.74
H       5.90       4.99      25.13
H      15.44       8.46      25.29
H      15.44      26.40       3.80
H      19.43      15.34      15.04
H      15.03      20.06       1.06
H       9.88       7.24      10.11
H      10.32      17.11      21.00
H      11.91      29.32      16.57
H       3.04       3.89       8.48
H      11.89       5.37      12.43
H       1.62      10.32       0.71
H      13.62       7.54      15.50
H      20.11       4.17       7.81
H       1.60      26.50      14.16
H      20.11       8.44       2.71
H       9.82      27.69      18.77
H       1.16       4.00      14.69
H      15.67      16.40      11.08
H      10.32      23.73      13.08
H      11.89      13.19       3.05
H       5.27       9.68       4.63
H       4.87      23.14      12.69
H       5.38      15.46      15.50
H       9.04      25.51      19.74
H      19.40      24.34      18.84
H       1.40      18.22       1.99
H       5.86      12.02       3.95
H      20.17      24.63      16.48
H       9.14      16.53      11.55
H      11.41       8.22       6.86
H       3.05      20.16      22.17
H      20.48      19.52       0.46
H       4.87      16.63      20.49
H      15.11      13.56      16.57
H       2.83      18.32       7.47
H       9.17      22.80       2.75
H       3.50       6.35       5.30
H       4.82      13.13      16.21
H      11.23      11.99      21.29
H      19.46      25.07       4.65
H       3.24      13.18      24.05
H       5.19       9.25       7.72
H       1.35      11.91      15.13
H       3.52      31.29      26.10
H      13.62      16.60       4.64
H      13.33      27.97      18.10
H      11.83      15.69      22.42
H      15.03       4.64      19.55
H      13.81       0.58       0.48
H       1.64      23.12       2.06
H      10.35       2.57      13.35
H       5.27       6.29       8.69
H       1.64       6.17      22.38
H       3.33      15.27      21.95
H      10.18      12.35      26.13
H       9.81      30.27      25.26
H      15.48      22.62      18.87
H      13.22       5.21       4.35
H      14.00      15.20       1.22
H      16.15      19.84      22.63
H      20.30      10.50      19.95
H       3.55      12.13      21.05
H      15.49       5.80       8.30
H       2.93      26.65      22.24
H       4.97       2.60      13.22
H      13.35      24.51       5.88
H      15.49       9.21       4.22
H       0.03       8.14      13.51
H       1.40       5.22      17.57
H       2.94      10.10       8.43
H      15.46       6.09       5.08
H      13.23      21.76      18.16
H       4.62      10.35      19.64
H      15.16      15.23       6.10
H      15.16       8.73      13.90
H       8.70      16.66       9.07
H      15.67      13.84      14.15
H       4.74      11.80      25.52
H      13.79      25.51      21.29
H      15.11      18.73      10.37
H       4.62      21.18       6.67
H       0.06      18.27      26.45
H       0.94       8.77      18.60
H      20.04       6.80      24.75
H       3.06       7.35      20.71
H       5.80      22.12      24.75
H       5.38      18.02      12.44
H      16.09       9.74       1.84
H       5.20      22.66      22.37
H       3.05      25.42      15.87
H      20.10       1.59       1.33
H      11.45      16.70      25.28
H      13.84      19.73       5.54
H       3.24      26.02       8.66
H      20.17      20.62      21.28
H       3.42      22.89      19.10
H       9.14      14.32      14.19
H      11.83      24.86      11.42
H      11.93       8.75      24.53
H       9.10       8.97       6.01
H      14.91      10.68      19.92
H       3.04       9.04       2.31
H       1.62       2.55      10.02
H      11.50       1.30       1.09
H       5.86       6.04      11.12
H       1.12      23.65      19.73
H       3.71      16.66      25.37
H      16.09       3.56       9.26
H       0.06      29.30      13.24
H       9.04      23.99      21.57
H       9.75      25.06       1.84
H      12.07      29.42      24.55
H       1.54       7.00      15.17
H       5.17      25.77      21.50
H      19.46       9.06      23.83
H      11.64      19.96      11.45
H       5.15       5.46      22.79
H       9.88      11.25       5.31
H       4.82      18.30      10.02
H       2.83      10.63      16.69
H      11.64      14.84      17.58
H      15.56      25.57      17.90
H       0.03      14.75       5.59
H      16.19       6.24      26.18
H      11.93      25.69       4.21
H      10.18      27.92       7.47
H       1.21      30.56      25.50
H      10.01      10.36      19.83
H       9.75       6.30      24.33
H      15.26      29.26      13.37
H      19.33       6.35       6.85
H       1.54      16.18       4.17
H       0.94      19.87       5.30
H      13.84       8.98      18.42
H      18.99      19.96      11.82
H      20.48       3.94      19.12
H      11.23      23.09       7.98
H      16.19      26.87       1.45
H      13.53      18.69       2.54
H      11.47      24.78      20.68
H      13.33      22.82      24.28
H       5.90      25.62       0.41
H      11.45      27.87      11.90
H       4.97      13.47       0.19
H      11.69      13.65      24.59
H       9.17       6.79      21.94
H       9.10       7.52       7.75
H      13.35      10.18      23.06
H      13.71       8.97       7.49
H      19.40      22.90      20.58
H       1.18       7.08       5.91
H      15.56      22.19      21.95
H       5.80      28.31      17.33
H       3.55      22.88       8.17
H      13.34       6.45      10.72
C      12.34      24.28      20.26
C      16.99      10.22      23.91
C       4.24      25.33      21.14
C      11.43      13.55       0.04
C      12.13       6.65       5.55
C      18.24      19.19      11.63
C      10.84      16.07      19.17
C      18.71      25.48       3.97
C       3.33       7.18       5.99
C       6.60       6.37      10.40
C       8.19      16.90      11.15
C       6.72      17.51       9.34
C       3.03       9.27       7.74
C       1.76      14.43       0.76
C      14.36       4.09      18.90
C       4.07      27.78       7.69
C       1.36      16.82       7.94
C      13.44      12.78       4.49
C      11.69      26.45       7.95
C      18.71      24.66      18.06
C      18.21      25.26      15.79
C      13.44       6.71      11.77
C       4.16      23.88      13.05
C       0.80      10.49      19.90
C      14.45       7.98      13.54
C       6.42      10.95      15.95
C      19.04       7.22      24.88
C       1.48      20.56       5.95
C      12.28       7.72       6.44
C      18.56       9.49       0.74
C       4.18       1.43       1.19
C      14.38      13.35       5.37
C       7.95      12.67      14.96
C       3.18      17.42      25.95
C      11.83       9.54      19.01
C       4.09      24.19      14.41
C      13.61       7.32      14.43
C      10.08       9.58      26.28
C      11.65      21.04      11.47
C       3.88      13.49       0.14
C       1.55       5.94      21.32
C       8.42       6.38      22.62
C       6.54      22.53      24.07
C      12.46      21.75      10.59
C       4.16      17.11      21.16
C      17.40      25.69       4.41
C       8.78      23.26      23.58
C       4.87       2.96       6.76
C      15.16      28.91      19.83
C      13.13      30.87      25.75
C      18.71      22.19      21.03
C      13.23       9.63      19.04
C      10.08      27.57       4.72
C       6.18      23.73       1.43
C      12.63      29.80      17.22
C       2.17      17.55       7.08
C      11.74      15.53      21.34
C      16.49       9.01       3.83
C       9.97      21.01      13.29
C      20.26      15.03       8.30
C       7.86      22.72      24.49
C       1.45      16.34       5.25
C       1.54      22.33       7.58
C       1.45       8.09      15.13
C       6.18       5.65      23.09
C      19.07       4.50       7.93
C      11.74      23.78      11.45
C       2.84       1.00       0.83
C      16.39      17.21      11.21
C       2.05       7.58       6.33
C       1.38      31.39      26.19
C       4.94      23.57      15.42
C      14.47      30.44      25.40
C      12.62      25.25       6.20
C       8.35      23.58      22.30
C      13.45      17.41      25.72
C       1.36      10.82      15.12
C       8.35      26.17      19.21
C       4.02       7.90       0.75
C      16.71      20.91      10.64
C      15.16      24.68      24.89
C       0.62       8.72      14.21
C       4.94      19.39      20.43
C      14.13      16.43      24.88
C       6.54      27.71      17.86
C      14.38       7.67      12.17
C       1.76       3.33      14.07
C       2.33       6.61      20.39
C      11.69      12.56      24.60
C      13.41      29.06      18.09
C      13.45      28.42      12.52
C       5.79      17.90      10.32
C       3.88       2.55      13.25
C       1.14      29.40      13.26
C       8.75       6.09      23.94
C       2.94      22.23       7.54
C      14.17      29.31      13.34
C      11.43       2.46      13.32
C      10.91      23.14      12.38
C      12.17      23.21      19.37
C      18.24      14.88      16.80
C      10.79       6.20       5.18
C      20.37       4.29      21.87
C      18.64       8.28       4.28
C       0.63      21.43       1.15
C       6.10      14.65      15.38
C      18.71       8.47      24.36
C      13.47       3.22      14.10
C       0.55      10.12      14.21
C      10.93      10.43      25.44
C      14.53       6.53       5.45
C      18.62      18.73      22.47
C      18.62      25.46      14.40
C      16.99      25.36       5.77
C      15.23      12.47       6.16
C       0.63       4.97      20.88
C       4.02       2.16       7.64
C       1.40       5.41      18.64
C       1.68       1.62       1.35
C      16.83       9.33       2.52
C       6.60      24.96       0.92
C       1.84      25.22      21.04
C       1.55      22.04       2.03
C      16.71      14.21      18.67
C      14.13      27.42      11.71
C      14.17      18.37      26.45
C       3.25      13.31      25.13
C       7.86      28.17      17.96
C       7.11       6.18      22.18
C      18.15       9.15       2.10
C       6.60      11.37       4.41
C       0.44       1.14       0.95
C      11.09      10.41      19.83
C       8.27      29.44      17.38
C       8.42       9.68       5.56
C       0.55      15.79       7.42
C       3.54      21.29       6.71
C       3.12       8.87       1.24
C       3.32      24.55      12.15
C      10.73      30.72      25.63
C       2.34       2.06       9.37
C      16.83       4.15       8.73
C       8.84      10.94       5.16
C      12.63      22.28      26.24
C      16.47      26.21       3.49
C      12.64      13.61       3.71
C      12.95       0.07       0.06
C       6.70       6.51      20.81
C       2.94      11.40      20.52
C      13.55       8.14       6.80
C      13.29       6.05       5.04
C      11.83      20.41       5.98
C      12.05      17.43      25.83
C       9.97      16.84      18.29
C      11.67       0.48       0.40
C      10.87      27.17       7.08
C      19.14      24.83      16.75
C       1.40      19.31       1.99
C       1.99      24.14      20.15
C       4.09      18.51      21.22
C       6.72      12.33      15.56
C       3.15      25.16      14.82
C       0.87      23.29       8.43
C       4.07      12.54      25.95
C      19.07       8.61       3.01
C       0.58      20.03       1.13
C       8.27      22.37      25.85
C       6.26      10.08       4.80
C       8.84       7.03       9.84
C      11.84      25.92       5.27
C      16.89      20.50      22.18
C       0.87      12.47      21.41
C      18.21      20.05      22.03
C       2.35      18.25      22.87
C      20.37      22.28       0.31
C      11.77      22.33       7.43
C       2.17      10.11      16.00
C      10.84      21.74      12.38
C      11.65      15.05      18.65
C      16.47       8.13      25.16
C      18.64       5.70       7.38
C       8.42      23.40       2.23
C       7.92      11.81       4.56
C      19.04      25.77       2.65
C      16.39      14.11      14.93
C       1.48       9.54      19.16
C       7.92       6.60      10.80
C      13.41      23.00      25.35
C      14.26      13.33      11.13
C      13.23      20.46       6.07
C      14.32      23.96      25.84
C       6.70      21.64       2.67
C       2.66      31.79      26.53
C      10.93      26.90       5.70
C      13.83      21.45       6.84
C       3.84       4.44      14.88
C       2.35      25.77      13.86
C       2.33      21.24       2.85
C       3.16       3.44      14.07
C       2.34       9.59       0.35
C      13.54      18.55       1.46
C      14.32      29.71      18.95
C       3.54      10.42      19.75
C       0.62      15.54       6.03
C       3.32      16.36      21.97
C       3.15      19.08      22.10
C       8.33      13.14       4.12
C      17.40       8.94      24.48
C       3.12       2.81       8.50
C      19.14      20.93      21.43
C       3.18      28.65      12.49
C       6.60       5.38      24.39
C       7.11      22.92       2.11
C      11.09      21.38       6.68
C       3.26      23.72      19.79
C      17.01      19.54      11.03
C      13.61      15.51       4.61
C       8.42       7.20       8.53
C      14.56      23.07      19.25
C      11.97      30.25      25.24
C      16.89       6.91      25.67
C       1.54      11.45      20.61
C       0.58       4.70      19.50
C       6.20      26.48      18.41
C       7.95      16.99       9.79
C      13.83      10.57      19.88
C      18.15       3.70       8.62
C       0.80      21.46       6.76
C       3.84      15.43       1.70
C       5.79      13.35      15.76
C       6.26       6.53       9.06
C       1.14      18.32      26.55
C       3.00      25.82      21.54
C      10.87      11.83      25.46
C       8.19      14.00      14.63
C      10.91      16.32      20.55
C      13.47      14.45       0.64
C      17.01      14.35      17.25
C      18.48      17.86      11.96
C      11.16      19.40       5.18
C      11.16       8.57      18.16
C      16.89      26.49       2.20
C      13.54       4.76      17.99
C      14.45      14.75       5.43
C       3.25      27.10       8.60
C      16.08      18.51      10.82
C      12.05      28.53      12.52
C      12.46      14.32      19.51
C      18.48      14.96      15.43
C       6.42      17.65       7.92
C       3.16      14.46       0.87
C       4.87       7.18       1.70
C       8.78      27.37      18.66
C      13.62      24.69      20.60
C      11.84       9.83      24.56
C      16.89      25.49      16.19
C       6.10      17.76      11.66
C       8.33       6.41      12.19
C      16.49       5.38       8.18
C      20.26      10.86      13.30
C       1.88       8.66       7.22
C       6.20      22.85      22.76
C      16.08      13.96      16.27
C      16.56      21.79      21.78
C       4.27       8.80       7.34
C      13.32      22.59      18.85
C      12.64       6.09      12.72
C      11.77      11.31      20.64
C       0.53       9.09       7.58
C       3.97      18.53      15.46
C      16.56      25.33      17.53
C      18.56       2.43       9.20
C      10.83      22.78      19.01
C      14.36      19.32       0.64
C      12.62      10.62      23.74
C       8.75      24.64       1.71
C      15.23       8.30      11.17
C       0.50      25.66      21.41
N      15.89      25.79      25.14
N       4.38      24.30      20.28
N      16.63       9.54      10.18
N       4.94      20.73      20.60
N       9.42      18.04      18.58
N       9.16       0.97       2.86
N       9.47      14.74       3.33
N      15.59      13.63      19.15
N       9.31       1.63       4.94
N      15.27      24.28      23.60
N      19.45      30.89      23.72
N      19.40      26.67      22.25
N       9.44      16.92       0.91
N      15.75      10.48      23.46
N       4.94      23.98      16.71
N      19.91      12.15      13.50
N      19.45      28.87      26.15
N      19.03      27.83      25.41
N       9.16       2.99       0.44
N       7.15       9.24       5.38
N      10.00       8.24      26.09
N      16.23      13.79      11.51
N       5.52      20.11       3.54
N       8.70      22.73      18.97
N       3.19       5.30      15.70
N      19.79       2.19       9.71
N       9.73      23.38      19.51
N       9.42      21.51      14.42
N      17.83      25.16      13.35
N       5.18       4.64      14.90
N       2.83      20.47       5.92
N       7.54      14.23       4.23
N      20.10      12.61      21.47
N      15.23       7.88       9.88
N       9.44       3.92      16.48
N      18.15      26.27       1.76
N      13.48      15.47      24.18
N      17.04      25.07       7.87
N       8.84      17.37      16.58
N      16.12      10.69       6.87
N       8.73      18.36      17.49
N       5.94      18.07      15.08
N       1.51      24.22       9.18
N       2.21      17.34       5.75
N       9.62       7.48      17.18
N      10.50      21.77      18.16
N       8.74       4.04       1.18
N       7.29      17.27      12.08
N       9.81       8.49      18.03
N       8.73      20.50      14.93
N       6.18       5.79       2.62
N      19.60      26.71      25.87
N       5.81       6.70       3.54
N       8.29       6.40      14.30
N       0.21      10.09       8.42
N      11.80      18.49       4.41
N       5.35      16.51       2.73
N       9.50      29.67      16.87
N      17.58      14.59      14.51
N      20.10      23.38       8.56
N      17.04      12.23      23.26
N       8.67       6.17       5.15
N      20.29      23.62       0.49
N       5.89      19.12      15.95
N      10.57      31.75      26.49
N      17.52      21.97      10.89
N      10.81      17.79       3.86
N      12.69       4.13      17.15
N       8.23       4.43      16.76
N      16.15      29.44      24.56
N      13.48      26.56      10.89
N       7.23       9.89      15.70
N      15.71      13.72      20.47
N      19.02      11.37      11.66
N       4.61      19.43      16.21
N      19.99      25.05      20.90
N       9.11       5.20       4.34
N       9.47       5.91      13.90
N       6.30       1.45       1.21
N      12.13      14.47       0.73
N      16.09      12.86       7.13
N      19.71      13.83       8.01
N       4.98       4.30       6.92
N       6.34      22.33      16.41
N       4.68      17.67      14.74
N       5.79      22.55      15.21
N      19.73      14.95      25.68
N      15.56      31.05      25.91
N      19.13      14.49      10.00
N       5.46       6.91      20.48
N       6.58      17.53       5.81
N      17.76      28.37       9.27
N       2.40      27.74       9.44
N       4.98       7.58       2.99
N      17.81      25.43       6.84
N      19.92      13.62      22.30
N       4.52       2.43       2.03
N       4.16      17.04       3.04
N      16.12       8.68       9.29
N      12.69      17.61       0.99
N      19.00       9.13       7.62
N      15.89      29.35      20.87
N      15.81      11.75      23.05
N       6.75       6.79      18.72
N      19.91      15.46       9.54
N       5.81       4.68       5.96
N       6.18       3.61       5.23
N       5.83      23.19      17.30
N       5.79      19.00      19.46
N       5.42       9.26      16.76
N       3.19      16.39       2.40
N       2.40      14.26      25.60
N      15.75      24.95       6.11
N      14.82      29.43      24.56
N      13.12      11.40      20.67
N       0.52      14.08      22.73
N       9.53      13.43       3.57
N      15.47      27.23      11.69
N      19.73      27.94      10.11
N      14.97      14.19      11.84
N      12.50      14.53      20.84
N       5.52       7.09      19.16
N      16.63      11.72       7.56
N      16.87      23.01      10.38
N      10.00      27.15       3.44
N      19.03      29.98      22.82
N       2.26      19.89       2.86
N       7.86       5.60      24.83
N      11.80       7.65      17.41
N      10.81       6.98      16.81
N      15.81      24.78       7.43
N       5.83      21.17      19.71
N      18.58      16.65      22.85
N       5.42      18.15       6.11
N      15.23      11.13       5.99
N       5.18      15.49       1.89
N      12.50      23.11      10.56
N       9.62      18.24       4.29
N       7.47       3.50      17.32
N       9.88      16.40      13.68
N      10.45       5.20       4.34
N      17.52      14.65      19.67
N       1.51      13.37      22.18
N       7.52       6.43      19.74
N      14.45      25.82      10.36
N       7.54       6.71      13.24
N       7.23      17.21       6.92
N      17.44      22.63      21.21
N       9.81      19.26       5.12
N       5.35       5.64      15.75
N      16.09       9.32      11.38
N      16.87      14.33      20.78
N       2.83       9.49      19.08
N      19.02      13.50       9.09
N      18.52      27.44       9.83
N       9.17      21.77      18.16
N       5.30      10.58      16.61
N      18.15       6.44      25.53
N      13.12      22.38       7.51
N      15.59      21.28       9.98
N      17.38       6.15       7.51
N       7.47      17.66       0.34
N      17.76      14.20      26.25
N      19.82      18.44      23.02
N       5.27       0.81       0.68
N       9.62      19.72      13.09
N       0.52      24.88       9.78
N      12.72      14.96       3.76
N       4.43       7.77       6.48
N      15.71      22.60       9.83
N      14.45      14.82      23.55
N      16.10      27.19      20.63
N       6.34      20.14      19.03
N      17.81      11.29      23.79
N       7.15       6.95       8.12
N       5.46      21.38       3.13
N       5.60       2.51       5.72
N       4.16       6.04      16.23
N      15.47      16.37      24.69
N      16.10      25.16      23.05
N      19.76      17.13      23.26
N       2.43      25.49      12.54
N      19.71      10.36      12.17
N       1.84      17.39      25.85
N       7.29      14.98      14.83
N       7.52      20.58       2.79
N      16.47      28.25      21.36
N      14.67       7.56       6.31
N      12.72       6.38      14.04
N      17.38       8.49       4.71
N      18.52      14.58      25.23
N      19.82      25.95      14.02
N       8.29      15.21       3.74
N      19.46      10.10       8.43
N      16.59      30.41      25.37
N      15.64      15.36      23.86
N       9.53       5.92      12.57
N       8.74       1.88       3.76
N      12.13       3.31      14.11
N      17.58      16.88      11.76
N       9.70       6.81       5.69
N       6.58       8.85      16.21
N       9.50      21.92      26.17
N      19.92      24.38       9.41
N       7.86      25.43       1.06
N      20.02       8.48       7.08
N      12.55      11.97      23.73
N      14.90      12.43      10.37
N      17.83      17.64      22.36
N       7.09      23.37      21.88
N      18.96      25.69      21.44
N       6.75      19.63       3.33
N       9.62      16.41      17.05
N       0.27       0.12       0.10
N      16.47      26.07      23.97
N      19.13      12.44      12.46
N      18.58      25.47      12.29
N      20.29       4.72      23.15
N       1.84      28.55      12.48
N       5.30      18.23       7.44
N      16.18      12.74      10.63
N       5.60       6.07       1.45
N       2.26       6.37      19.06
N       8.84      19.43      14.12
N       2.21       8.76      16.03
N      15.27      27.57      19.66
N      19.60      30.23      21.64
N      12.55      25.49       7.53
N      15.64      26.22      10.84
N      19.79       9.95       0.41
N       8.23      17.28       1.36
N       2.43      16.91      22.83
N      14.72      24.09      20.10
N       0.16      26.67      22.25
N      17.44      24.92      18.46
N       7.09      25.71      19.07
N       5.86       2.43       2.02
N      20.17      15.46      12.90
N       9.31       5.16       0.72
N      19.76      25.95      12.68
