42

C      11.37      19.44      13.65
C      10.74      18.20      13.47
C      10.04      17.94      12.28
C       9.96      18.92      11.28
C      10.59      20.17      11.45
C      11.30      20.41      12.65
H      10.60      24.08       7.76
O      10.60      25.29      11.51
H      10.64      22.85      11.85
H      10.22      20.74       2.80
H      10.38      19.86       8.75
O      10.95      25.93       9.40
O      11.02      17.67       5.16
H       9.36      18.70      10.40
H      11.84      21.34      12.80
O      11.95      18.87      15.87
O      12.90      20.72      14.92
H       9.87      23.60       5.97
H      10.78      17.45      14.25
O      11.00      18.39       3.05
H      11.00      19.49       6.82
O       9.63      24.56       3.78
O       9.58      15.74      13.00
O       8.57      16.48      11.11
O       9.17      23.05       2.20
C      10.73      25.03      10.25
C      10.62      23.59       9.83
C      10.55      23.26       8.48
C      10.46      21.91       8.06
C      10.44      20.91       9.05
C      10.54      21.21      10.42
C      10.62      22.58      10.80
C      10.93      18.61       4.31
C       9.60      23.35       3.37
C      10.66      20.00       4.79
C      10.29      20.99       3.86
C      10.02      22.28       4.31
C      10.09      22.58       5.67
C      10.42      21.59       6.62
C      10.71      20.29       6.15
C      12.14      19.69      14.93
C       9.33      16.62      12.11
