42

C       6.18       7.02       4.31
C       7.51      11.77       3.38
C       6.45       8.41       4.79
C       6.82       9.40       3.86
C       7.09      10.70       4.31
C       7.02      10.99       5.68
C       6.69      10.00       6.63
C       6.40       8.71       6.15
C       4.98       8.11      14.93
C       7.78       5.04      12.11
C       5.74       7.85      13.65
C       6.38       6.62      13.47
C       7.08       6.36      12.28
C       7.16       7.34      11.28
C       6.53       8.59      11.45
C       5.81       8.82      12.65
H       6.51      12.49       7.76
H       6.73       8.28       8.75
H       6.48      11.27      11.85
H       6.89       9.16       2.80
H       7.25      12.01       5.98
H       6.11       7.90       6.83
H       6.34       5.86      14.25
H       7.75       7.12      10.39
O       6.52      13.70      11.52
O       6.16      14.35       9.42
O       6.09       6.08       5.17
O       6.11       6.80       3.06
O       7.48      12.98       3.81
O       7.94      11.48       2.21
H       5.27       9.76      12.80
O       5.17       7.29      15.87
O       4.21       9.14      14.92
O       8.55       4.90      11.11
O       7.53       4.16      13.00
C       6.39      13.44      10.26
C       6.49      12.01       9.84
C       6.56      11.68       8.48
C       6.66      10.33       8.06
C       6.67       9.32       9.05
C       6.57       9.63      10.42
C       6.50      11.00      10.80
