42

C       0.69       9.72      24.98
C       0.79      11.16      24.56
C       0.86      11.49      23.20
C       0.96      12.84      22.78
C       0.97      13.85      23.77
C       0.87      13.54      25.13
C       0.80      12.17      25.52
C       0.46      16.14      19.02
C       1.82      11.40      18.09
C       0.74      14.75      19.50
C       1.11      13.77      18.58
C       1.39      12.47      19.03
C       1.32      12.18      20.40
C       0.99      13.17      21.34
C       0.70      14.46      20.87
C      -0.72      15.06      29.64
C       2.08      18.13      26.83
C       0.04      15.32      28.36
C       0.68      16.55      28.18
C       1.38      16.81      27.00
C       1.46      15.83      26.00
C       0.83      14.58      26.17
C       0.11      14.34      27.37
H       0.81      10.67      22.48
H       1.03      14.89      23.47
O       0.82       9.46      26.24
O       0.46       8.82      24.14
H       0.77      11.90      26.57
H       1.56      11.16      20.69
O       1.78      10.19      18.51
O       2.24      11.70      16.92
H       1.18      14.01      17.52
O       0.33      17.08      19.87
O       0.41      16.36      17.77
H       0.41      15.26      21.54
H       2.05      16.05      25.11
O       2.85      18.27      25.83
O       1.84      19.01      27.72
H       0.64      17.30      28.97
O      -0.54      15.89      30.58
O      -1.49      14.03      29.64
H      -0.43      13.41      27.52
