42

H       6.51       0.91       6.95
H       6.72      -3.30       5.96
H       6.47      -0.31       2.87
O       6.51       2.12       3.19
O       6.16       2.77       5.30
H       7.25       0.43       8.74
H       6.11      -3.68       7.89
H       7.74      -4.46       4.32
O       8.54      -6.69       3.61
O       7.52      -7.43       1.72
O       6.11      -4.78      11.66
O       7.48       1.40      10.90
O       4.21      -2.45      -0.20
O       7.94      -0.09      12.51
H       5.27      -1.83       1.92
H       6.33      -5.72       0.47
C       6.38       1.86       4.46
C       6.49       0.43       4.88
C       6.56       0.10       6.23
C       6.65      -1.26       6.65
C       6.66      -2.26       5.67
C       6.57      -1.95       4.30
C       6.49      -0.59       3.92
C       6.18      -4.56      10.41
H       6.89      -2.42      11.91
C       7.51       0.19      11.34
C       6.45      -3.17       9.93
O       6.07      -5.50       9.56
C       6.82      -2.18      10.86
C       7.09      -0.89      10.40
C       7.02      -0.59       9.04
C       6.69      -1.58       8.09
C       6.40      -2.88       8.57
C       4.97      -3.47      -0.21
C       7.77      -6.54       2.61
C       5.73      -3.73       1.07
C       6.37      -4.97       1.25
C       7.07      -5.22       2.44
C       7.15      -4.25       3.44
C       6.52      -3.00       3.26
C       5.81      -2.76       2.07
O       5.16      -4.30      -1.15
