42

H       0.82      22.26      21.67
H       1.03      26.48      20.68
H       0.78      23.48      17.59
H       1.19      25.60      26.64
H       1.56      22.74      23.46
O       0.82      21.04      17.92
H       0.64      28.89      15.19
O       0.47      20.41      20.03
H       2.05      27.63      19.04
H      -0.42      25.00      16.64
O       1.78      21.78      25.65
O       2.25      23.29      27.23
O       0.32      28.66      24.26
O       0.42      27.97      26.38
H       0.41      26.85      22.61
O       1.84      30.59      16.43
C       0.69      21.31      19.19
C       0.80      22.75      19.60
C       0.87      23.08      20.96
C       0.96      24.43      21.37
C       0.97      25.43      20.39
C       0.87      25.12      19.02
C       0.80      23.76      18.64
C       0.46      27.73      25.12
C       1.82      22.99      26.07
C       0.74      26.34      24.65
C       1.12      25.35      25.58
C       1.40      24.06      25.12
C       1.33      23.76      23.76
C       1.00      24.75      22.81
C       0.70      26.05      23.29
C      -0.72      26.64      14.51
C       0.04      26.90      15.79
C       0.68      28.13      15.97
C       1.38      28.39      17.16
C       1.46      27.42      18.15
C       0.83      26.17      17.98
C       0.12      25.93      16.79
C       2.09      29.71      17.33
O      -0.53      27.47      13.57
O      -1.49      25.62      14.52
O       2.85      29.86      18.33
