156

K       0.25       9.44       0.88
K       1.28      10.57       7.36
K      10.52       1.81      15.56
K       9.43       0.73       9.08
Zn      10.95       0.37      12.31
Zn      -0.20      10.90       4.13
Zn      11.01       5.68      16.41
Zn       5.09      11.25       8.19
H       2.74       9.47      13.26
H       2.50       7.89      13.98
H       4.12       8.38      13.46
H       4.45       6.37       0.35
H       4.24       6.76      15.09
H       3.76       6.95       2.24
H       3.79       8.33       3.33
H       5.28       7.81       2.53
H       3.05       1.89      16.43
H       4.54       1.95       0.80
H       3.08       1.45       1.69
H       3.63       1.43      14.66
H       3.99       0.17      13.51
H       4.62      10.26       3.45
H       4.80       0.63       2.83
H       1.46       8.12      11.40
H       3.02       8.44      10.68
H       2.61       6.80      11.20
H       4.56       6.47       7.88
H       4.24       6.81       9.57
H       3.95       7.15       5.98
H       2.58       7.05       4.89
H       3.17       5.59       5.69
H       9.02       8.19       8.24
H       8.97       6.62       7.42
H       9.40       8.10       6.53
H       9.52       7.61      10.01
H      10.80       7.36      11.16
H       0.70       6.15       4.75
H      10.30       6.43       5.37
H       8.00       1.82       3.18
H       8.24       3.39       2.45
H       6.62       2.90       2.98
H       6.27       4.90      16.09
H       6.55       4.53       1.34
H       6.99       4.33      14.20
H       6.95       2.96      13.10
H       5.47       3.47      13.91
H       7.70       9.38       0.01
H       6.21       9.33      15.64
H       7.67       9.83      14.75
H       7.10       9.85       1.79
H       6.77      11.13       2.93
H       6.15       1.03      12.97
H       5.97      10.65      13.58
H       9.27       3.16       5.04
H       7.71       2.84       5.77
H       8.12       4.48       5.24
H       6.18       4.80       8.58
H       6.50       4.51       6.88
H       6.79       4.13      10.47
H       8.16       4.23      11.55
H       7.58       5.70      10.75
H       1.72       3.10       8.20
H       1.77       4.67       9.02
H       1.34       3.18       9.90
H       1.22       3.64       6.43
H      -0.06       3.94       5.28
H      10.05       5.13      11.69
H       0.44       4.85      11.06
C       3.20       8.74      13.94
C       3.46       9.32      15.31
C       3.80       8.46      16.37
C       3.86       6.97      16.10
C       2.48       6.34      16.20
C       4.19       7.95       2.38
C       3.89       8.88       1.23
C       3.73      10.27       1.47
C       3.36      11.13       0.42
C       3.30      10.70      15.56
C       3.61       1.36       0.74
C       3.43       0.37      14.43
C       1.93       0.25      14.11
C       2.57      10.84       3.70
C       3.87      10.81       2.87
C       2.21       7.70      10.72
C       1.64       7.42       9.35
C       2.52       7.12       8.29
C       4.01       7.14       8.55
C       4.56       8.54       8.40
C       2.98       6.67       5.83
C       2.03       6.92       6.98
C       0.64       7.01       6.75
C      -0.24       7.34       7.80
C       0.26       7.50       9.10
C       9.51       7.57       7.49
C      10.56       7.89      10.23
C      10.58       9.40      10.52
C       0.01       8.17       4.55
C       0.11       6.85       5.35
C       7.54       2.54       2.50
C       7.29       1.96       1.12
C       6.95       2.82       0.06
C       6.89       4.31       0.32
C       8.26       4.94       0.17
C       6.55       3.33      14.05
C       6.86       2.39      15.19
C       7.03       1.01      14.95
C       7.40       0.15      16.01
C       7.44       0.58       0.87
C       7.14       9.92      15.70
C       7.32      10.91       2.01
C       8.82      11.01       2.30
C       8.20       0.44      12.73
C       6.89       0.47      13.55
C       8.53       3.58       5.72
C       9.09       3.87       7.09
C       8.22       4.17       8.15
C       6.73       4.15       7.89
C       6.18       2.74       8.02
C       7.76       4.62      10.61
C       8.71       4.36       9.46
C      10.10       4.27       9.69
C      10.98       3.94       8.64
C      10.48       3.78       7.34
C       1.23       3.72       8.95
C       0.18       3.39       6.20
C       0.13       1.89       5.89
C      10.75       3.11      11.89
C      10.64       4.43      11.09
O       1.43       7.00      16.35
O       2.50       5.02      16.12
O       0.56      11.15      15.02
O       1.62       0.53      12.90
O       1.47      10.77       3.02
O       1.20       4.37      16.25
O       2.67      10.96       4.94
O       3.85       9.55       8.23
O       5.89       8.59       8.48
O      -0.39      10.22       9.60
O      10.32       9.70      11.74
O       0.03       9.26       5.26
O       6.47       9.92       8.35
O      -0.11       8.11       3.31
O       9.31       4.28       0.00
O       8.23       6.27       0.27
O      10.19       0.07       1.38
O       9.13      10.76       3.52
O       9.29       0.52      13.44
O       9.54       6.92       0.19
O       8.13       0.33      11.49
O       6.89       1.73       8.20
O       4.85       2.69       7.90
O      11.07       1.06       6.80
O       0.43       1.59       4.68
O      10.77       2.02      11.18
O       4.28       1.36       8.03
O      10.85       3.18      13.13
