120

Zn       0.76       7.93      12.59
Zn       7.73      -1.38       7.09
Zn      13.18       1.08       0.53
Zn       6.21      10.40       6.03
H      12.48       7.56       2.01
H      12.89       9.76       1.52
H      10.65      -1.13       3.52
H       9.66       8.68       4.18
H       0.42       3.61       1.55
H      13.60       5.81       2.43
H       9.53       4.38       2.07
H      10.48       2.22       1.17
H       5.50       3.92       4.55
H       5.92       1.72       5.04
H       3.68      12.61       3.04
H       2.69       2.80       2.38
H       7.39       7.87       5.01
H       6.63       5.67       4.13
H       2.56       7.10       4.49
H       3.51       9.26       5.39
H       1.47       1.46      11.11
H       1.05      -0.75      11.60
H       3.30      10.14       9.60
H       4.28       0.34       8.93
H      13.53       5.40      11.57
H       0.34       3.21      10.69
H       4.41       4.63      11.04
H       3.46       6.80      11.95
H       8.44       5.09       8.57
H       8.02       7.30       8.08
H      10.27      -3.59      10.08
H      11.25       6.21      10.74
H       6.55       1.15       8.11
H       7.31       3.34       8.98
H      11.38       1.92       8.63
H      10.43      -0.25       7.73
C      11.32       9.04       2.85
C      12.09      10.02       2.21
C      11.84      11.38       2.43
C      10.84      11.76       3.33
C      10.06      10.78       3.95
C      10.29       9.42       3.71
C      10.87       6.57       2.79
C      13.30       3.83       1.66
C      12.86       5.07       2.14
C      11.48       5.29       2.28
C      10.61       4.24       1.95
C      11.12       3.05       1.46
C      12.63      12.39       1.65
C       8.96      11.15       4.90
C       4.35       2.44       3.71
C       5.12       1.45       4.35
C       4.87       0.10       4.13
C       3.87      -0.28       3.23
C       3.09       0.70       2.61
C       3.32       2.06       2.85
C       3.90       4.91       3.77
C       6.33       7.64       4.90
C       5.89       6.41       4.42
C       4.51       6.19       4.28
C       3.63       7.24       4.61
C       4.15       8.43       5.09
C       5.66      -0.92       4.91
C       1.99       0.33       1.66
C       2.62      -0.03      10.27
C       1.85      -1.01      10.91
C       2.10      -2.37      10.68
C       3.11      -2.75       9.79
C       3.88      -1.77       9.16
C       3.65      -0.41       9.41
C       3.08       2.44      10.33
C       0.64       5.18      11.46
C       1.09       3.95      10.98
C       2.46       3.72      10.84
C       3.34       4.77      11.17
C       2.82       5.97      11.65
C       1.32      -3.38      11.47
C       4.98      -2.14       8.22
C       9.59       6.58       9.40
C       8.82       7.56       8.77
C       9.07       8.92       8.99
C      10.08       9.30       9.89
C      10.85       8.32      10.51
C      10.63       6.96      10.27
C      10.05       4.11       9.34
C       7.61       1.37       8.22
C       8.06       2.60       8.70
C       9.44       2.82       8.84
C      10.31       1.78       8.51
C       9.79       0.58       8.02
C       8.29       9.93       8.21
C      11.96       8.69      11.45
N      11.64       7.69       2.57
N      12.45       2.85       1.32
N       4.67       3.79       3.99
N       5.48       8.63       5.24
N       2.30       1.32      10.55
N       1.49       6.17      11.80
N       9.27       5.22       9.13
N       8.47       0.38       7.88
O       9.76       6.58       3.33
O      13.57      11.93       0.93
O      12.29      -0.32       1.75
O       9.14      -1.77       5.63
O       7.94      10.39       4.88
O       2.78       4.90       3.23
O       6.59      -0.45       5.63
O       5.31      11.80       4.81
O       2.17      13.25       0.93
O       0.97       1.09       1.68
O       4.19       2.43       9.79
O       0.38      -2.91      12.19
O       1.66       9.34      11.37
O       4.80      10.78       7.49
O       6.01      -1.37       8.23
O      11.16       4.11       9.88
O       7.35       9.46       7.49
O       8.63      -2.79       8.31
O      11.77      -4.23      12.19
O      12.98       7.92      11.44
