11

C       2.88       3.44       8.77
O       0.67       2.92       5.09
C       0.63       3.29       8.26
Ni       2.45       2.82       5.92
N       1.91       3.24       7.85
C       4.81       3.21       5.14
N       2.18       0.83       6.20
C       0.93       0.37       6.42
C       0.04       4.05       5.02
C       3.20      -0.06       6.27
O       4.42       3.00       6.36
