9

N      11.03       0.10       3.14
C      11.74       0.02       1.96
N      12.31       0.01      -0.14
N      11.22       0.03       0.72
H      14.41      -0.04       0.21
C      13.40      -0.02       0.60
H      10.05      -0.13       3.06
N      13.10      -0.01       1.93
H      11.50      -0.37       3.91
