9

N      -0.22       7.23       3.36
N      -1.34       9.28       2.65
N      -2.20       7.33       2.01
C      -1.23       7.90       2.72
H      -0.33       6.21       3.29
C      -2.44       9.49       1.85
N      -2.95       8.34       1.45
H      -0.10       7.49       4.34
H      -2.84      10.46       1.61
