9

C      -1.68      13.08       2.70
C       0.32      13.35       1.88
N      -0.39      14.39       1.50
N      -0.44      12.48       2.64
H      -3.61      13.13       3.26
H      -2.65      12.07       4.17
N      -2.78      12.52       3.27
H       1.37      13.19       1.66
N      -1.66      14.24       2.03
