9

H       2.92      10.47      22.43
N       0.27       7.25      20.72
N       1.41       9.29      21.41
C       2.51       9.50      22.21
H       0.16       7.51      19.74
N       2.24       7.34      22.09
C       1.29       7.92      21.36
H       0.38       6.23      20.80
N       3.01       8.35      22.64
