9

N       3.00       5.20      23.93
C       3.29       5.69      26.03
H       4.02       7.24      27.12
H       1.91       3.40      24.28
C       2.44       4.26      24.67
N       2.59       4.52      26.00
N       3.71       6.27      27.20
H       3.08       6.11      27.99
N       3.55       6.13      24.79
