9

H       6.12       9.83      20.12
N       5.48       9.66      20.89
N       5.62       9.80      23.31
H       5.17       8.70      20.97
N       6.60      11.41      22.10
H       7.27      12.53      23.82
C       6.75      11.67      23.43
C       5.90      10.24      22.07
N       6.18      10.75      24.17
