616

H       3.44      11.65       6.84
H       1.08      11.93       6.94
H      29.50      11.75       7.07
H      27.19      11.14       7.17
H      28.03       7.51       5.17
H       2.94       7.88       4.98
H      30.65       9.73       2.68
H       0.30       6.59      43.37
H       0.45       5.01       1.68
H       0.18       6.79       7.57
H       0.74       3.74       3.82
H       0.99       2.93       6.04
H      25.57       9.03       5.47
H       0.81       5.01       9.01
H       0.36      10.09       0.25
H       5.00       8.75       6.52
H       3.44      31.85      30.75
H       1.08      31.57      30.65
H      29.50      31.75      30.52
H      27.19      32.36      30.44
H      28.03      36.00      32.44
H       2.94      35.62      32.62
H      30.65      33.77      34.92
H       0.30      36.91      37.71
H       0.45      38.50      35.92
H       0.18      36.72      30.02
H       0.75      39.76      33.78
H       1.00      40.58      31.56
H      25.56      34.46      32.15
H       0.82      38.49      28.58
H       0.36      33.41      37.34
H       5.00      34.75      31.08
H       3.40      33.70       8.72
H       1.04      33.62       8.99
H      29.46      33.50       8.80
H      27.15      33.42       8.18
H      28.03      35.40       4.53
H       2.94      35.55       4.94
H      30.65      37.87       6.78
H       0.32      40.66       3.64
H       0.47      38.87       2.05
H       0.17      32.98       3.83
H       0.75      36.73       0.79
H       1.00      34.51      43.46
H      25.55      35.12       6.08
H       0.80      31.53       2.06
H       0.36      40.30       7.14
H       4.99      34.02       5.82
H       3.44       9.79      28.90
H       1.08       9.89      28.62
H      29.51      10.03      28.80
H      27.20      10.12      29.41
H      28.03       8.12      33.05
H       2.95       7.92      32.67
H      30.65       5.63      30.82
H       0.30       2.84      33.96
H       0.44       4.63      35.55
H       0.18      10.52      33.77
H       0.73       6.77      36.81
H       0.99       8.99      37.63
H      25.57       8.41      31.52
H       0.82      11.96      35.54
H       0.36       3.20      30.46
H       5.00       9.46      31.80
H      18.67      33.35      28.82
H      16.30      33.66      28.78
H      13.88      33.52      28.71
H      11.57      32.95      28.64
H      12.50      29.27      26.76
H      18.25      29.61      26.89
H      15.20      31.48      24.43
H      15.79      28.34      21.65
H      15.90      26.76      23.45
H      15.37      28.52      29.33
H      16.12      25.49      25.60
H      16.28      24.67      27.82
H      10.33      29.93      28.29
H      15.96      26.75      30.79
H      15.77      31.84      22.00
H      20.54      31.41      27.18
H      18.68      10.16       8.79
H      16.31       9.83       8.84
H      13.89       9.97       8.91
H      11.58      10.53       8.98
H      12.50      14.22      10.84
H      18.25      13.90      10.71
H      15.20      12.02      13.17
H      15.77      15.16      15.95
H      15.89      16.75      14.16
H      15.37      14.98       8.28
H      16.10      18.01      12.01
H      16.26      18.83       9.78
H      10.32      13.56       9.31
H      15.95      16.75       6.81
H      15.77      11.66      15.60
H      20.54      12.11      10.43
H      18.68      11.74      30.40
H      16.31      11.79      30.72
H      13.89      11.85      30.58
H      11.57      11.92      30.02
H      12.50      13.78      26.33
H      18.25      13.66      26.65
H      15.20      16.12      28.53
H      15.78      18.90      25.39
H      15.89      17.10      23.81
H      15.37      11.22      25.57
H      16.11      14.95      22.54
H      16.27      12.73      21.72
H      10.32      12.27      26.98
H      15.96       9.76      23.81
H      15.77      18.55      28.89
H      20.54      13.37      28.45
H      18.67      31.77       7.19
H      16.30      31.72       6.88
H      13.88      31.66       7.03
H      11.57      31.59       7.60
H      12.50      29.71      11.28
H      18.26      29.84      10.94
H      15.20      27.38       9.07
H      15.79      24.60      12.21
H      15.90      26.40      13.79
H      15.38      32.28      12.03
H      16.12      28.55      15.06
H      16.28      30.77      15.88
H      10.33      31.24      10.63
H      15.97      33.74      13.80
H      15.77      24.95       8.71
H      20.54      30.13       9.12
H      28.61       0.28       6.60
H       2.15       0.95       8.57
H       2.38      42.37       6.47
H      28.70       2.93       6.87
H      28.61      43.21      30.99
H       2.15      42.56      29.03
H       2.38       1.13      31.13
H      28.70      40.56      30.72
H      28.61      33.96      40.81
H       2.14      31.97      41.47
H       2.38      34.08      39.42
H      28.70      33.69      43.46
H      28.61       9.56      40.27
H       2.15      11.52      39.60
H       2.37       9.41      41.66
H      28.70       9.82      37.61
H      13.11      21.96      28.30
H      17.42      22.73      30.38
H      17.75      20.68      28.28
H      13.13      24.61      28.57
H      13.11      21.55       9.30
H      17.41      20.77       7.22
H      17.75      22.82       9.32
H      13.13      18.89       9.03
H      13.11      12.25      19.01
H      17.41      10.17      19.78
H      17.75      12.27      17.74
H      13.13      11.97      21.67
H      13.12      31.25      18.59
H      17.42      33.33      17.83
H      17.76      31.23      19.87
H      13.14      31.52      15.94
H      23.55       8.64       9.30
H      22.49      12.49       6.56
H      25.10      12.17       6.13
H      20.85       9.02       9.66
H      23.55      34.88      28.32
H      22.49      31.01      31.04
H      25.10      31.32      31.46
H      20.85      34.49      27.96
H      23.54      31.29       5.65
H      22.48      33.99       9.53
H      25.08      34.44       9.22
H      20.85      30.92       6.05
H      23.55      12.24      31.92
H      22.49       9.51      28.06
H      25.10       9.09      28.38
H      20.85      12.60      31.54
H       8.05      34.94       8.71
H       7.10      30.27       7.84
H       4.64      31.50       7.80
H      10.51      33.75       8.74
H       8.07       8.55      28.90
H       7.10      13.21      29.78
H       4.65      11.99      29.82
H      10.52       9.75      28.87
H       8.07      11.64       5.59
H       7.10      10.77      10.26
H       4.65      10.73       9.04
H      10.52      11.66       6.80
H       8.06      31.86      32.00
H       7.10      32.72      27.33
H       4.65      32.77      28.55
H      10.51      31.82      30.80
C       0.19       6.62       5.48
C       0.32       5.74       4.40
C       0.20       6.45       3.22
C       0.03       7.80       3.51
C      30.75       8.74       2.46
C      30.80       8.31       1.11
C       0.17       6.93       0.85
C       0.28       5.99       1.89
C       0.59       4.37       4.61
C       0.71       3.90       5.92
C       0.51       4.74       7.05
C       0.28       6.13       6.80
C       1.16       8.93       5.40
C       0.64      10.09       5.98
C      30.10       9.98       6.06
C      29.70       8.76       5.51
C      29.20      10.87       6.66
C      27.85      10.50       6.72
C      27.41       9.26       6.20
C      28.33       8.40       5.55
C       2.56       8.75       5.35
C       3.43       9.76       5.84
C       2.85      10.94       6.41
C       1.47      11.11       6.48
C       0.05       8.02       4.99
C       0.19      36.88      32.12
C       0.32      37.77      33.19
C       0.21      37.06      34.38
C       0.03      35.70      34.08
C      30.76      34.77      35.14
C      30.80      35.20      36.49
C       0.18      36.58      36.75
C       0.29      37.51      35.71
C       0.59      39.13      32.99
C       0.71      39.61      31.67
C       0.51      38.76      30.55
C       0.28      37.38      30.80
C       1.16      34.58      32.19
C       0.64      33.42      31.60
C      30.10      33.52      31.53
C      29.70      34.74      32.09
C      29.19      32.63      30.94
C      27.84      33.00      30.89
C      27.40      34.25      31.41
C      28.33      35.10      32.06
C       2.56      34.75      32.25
C       3.42      33.74      31.75
C       2.85      32.57      31.18
C       1.46      32.40      31.11
C       0.05      35.48      32.61
C       0.19      35.07       3.67
C       0.32      36.15       2.78
C       0.21      37.33       3.49
C       0.03      37.04       4.85
C      30.76      38.09       5.78
C      30.81      39.45       5.36
C       0.19      39.70       3.98
C       0.30      38.66       3.04
C       0.60      35.94       1.42
C       0.71      34.62       0.95
C       0.50      33.50       1.79
C       0.27      33.75       3.17
C       1.14      35.14       5.98
C       0.62      34.57       7.14
C      30.08      34.50       7.03
C      29.69      35.05       5.80
C      29.16      33.92       7.91
C      27.82      33.87       7.54
C      27.38      34.39       6.29
C      28.32      35.02       5.44
C       2.55      35.19       5.81
C       3.40      34.69       6.83
C       2.82      34.13       8.00
C       1.43      34.07       8.17
C       0.04      35.57       5.07
C       0.19       8.43      33.93
C       0.32       7.35      34.82
C       0.20       6.17      34.11
C       0.03       6.46      32.75
C      30.76       5.41      31.81
C      30.80       4.05      32.24
C       0.17       3.80      33.62
C       0.28       4.84      34.56
C       0.58       7.56      36.18
C       0.71       8.87      36.65
C       0.51      10.00      35.81
C       0.28       9.75      34.42
C       1.16       8.35      31.62
C       0.64       8.94      30.46
C      30.11       9.01      30.57
C      29.70       8.46      31.79
C      29.20       9.61      29.68
C      27.85       9.67      30.05
C      27.41       9.15      31.29
C      28.34       8.50      32.15
C       2.56       8.30      31.80
C       3.43       8.79      30.79
C       2.86       9.35      29.61
C       1.47       9.43      29.44
C       0.05       7.93      32.53
C      15.47      28.36      27.24
C      15.65      27.48      26.17
C      15.60      28.19      24.98
C      15.41      29.55      25.27
C      15.33      30.49      24.21
C      15.41      30.05      22.86
C      15.64      28.68      22.61
C      15.73      27.74      23.66
C      15.92      26.12      26.38
C      15.99      25.64      27.70
C      15.74      26.48      28.82
C      15.50      27.86      28.56
C      16.44      30.66      27.24
C      15.90      31.82      27.80
C      14.53      31.74      27.76
C      14.15      30.52      27.19
C      13.59      32.65      28.27
C      12.24      32.31      28.21
C      11.80      31.08      27.64
C      12.78      30.18      27.14
C      17.85      30.47      27.26
C      18.67      31.44      27.88
C      18.09      32.63      28.39
C      16.71      32.82      28.36
C      15.36      29.76      26.74
C      15.47      15.14      10.37
C      15.65      16.02      11.44
C      15.59      15.31      12.63
C      15.41      13.95      12.33
C      15.33      13.01      13.39
C      15.40      13.45      14.74
C      15.63      14.82      15.00
C      15.72      15.76      13.95
C      15.91      17.38      11.22
C      15.98      17.86       9.90
C      15.73      17.02       8.79
C      15.50      15.64       9.05
C      16.45      12.84      10.37
C      15.91      11.68       9.82
C      14.53      11.75       9.85
C      14.15      12.98      10.42
C      13.60      10.84       9.35
C      12.24      11.18       9.40
C      11.81      12.41       9.96
C      12.78      13.32      10.46
C      17.85      13.03      10.35
C      18.68      12.07       9.72
C      18.10      10.87       9.22
C      16.71      10.67       9.26
C      15.36      13.73      10.86
C      15.47      13.31      25.42
C      15.65      14.38      24.53
C      15.60      15.57      25.24
C      15.41      15.28      26.60
C      15.33      16.34      27.54
C      15.40      17.69      27.10
C      15.64      17.94      25.73
C      15.72      16.89      24.79
C      15.92      14.17      23.17
C      15.98      12.85      22.69
C      15.73      11.73      23.53
C      15.50      11.99      24.92
C      16.45      13.32      27.71
C      15.91      12.76      28.87
C      14.53      12.80      28.80
C      14.15      13.36      27.57
C      13.60      12.29      29.71
C      12.24      12.35      29.37
C      11.81      12.91      28.14
C      12.78      13.41      27.23
C      17.85      13.29      27.52
C      18.68      12.67      28.49
C      18.10      12.17      29.68
C      16.71      12.20      29.88
C      15.36      13.81      26.82
C      15.48      30.19      12.19
C      15.66      29.12      13.07
C      15.61      27.93      12.35
C      15.42      28.22      11.00
C      15.33      27.17      10.06
C      15.41      25.81      10.49
C      15.64      25.56      11.87
C      15.73      26.60      12.81
C      15.93      29.33      14.43
C      16.00      30.65      14.91
C      15.74      31.77      14.07
C      15.51      31.51      12.69
C      16.45      30.19       9.89
C      15.91      30.75       8.73
C      14.53      30.71       8.81
C      14.16      30.14      10.03
C      13.59      31.22       7.90
C      12.24      31.16       8.24
C      11.81      30.59       9.47
C      12.79      30.09      10.38
C      17.85      30.21      10.07
C      18.68      30.83       9.10
C      18.09      31.33       7.91
C      16.71      31.31       7.72
C      15.36      29.69      10.78
C       1.22       0.80       8.18
C       0.95      43.09       7.48
C      30.51      42.86       6.89
C      29.54       0.41       7.01
C      29.82       1.63       7.67
C       0.26       1.83       8.25
C      30.24      41.71       6.08
C       0.60       3.05       8.90
C       1.22      42.70      29.42
C       0.95       0.42      30.12
C      30.51       0.64      30.70
C      29.54      43.09      30.58
C      29.82      41.87      29.93
C       0.26      41.67      29.34
C      30.23       1.79      31.52
C       0.60      40.45      28.70
C       1.21      32.37      41.33
C       0.95      33.07      40.13
C      30.51      33.66      39.91
C      29.54      33.54      40.93
C      29.82      32.89      42.15
C       0.25      32.30      42.36
C      30.24      34.47      38.76
C       0.59      31.65       0.10
C       1.21      11.13      39.75
C       0.95      10.43      40.94
C      30.51       9.85      41.17
C      29.54       9.97      40.14
C      29.82      10.62      38.92
C       0.25      11.21      38.72
C      30.23       9.03      42.32
C       0.59      11.85      37.50
C      16.50      22.56      29.96
C      16.28      21.36      29.26
C      15.03      21.10      28.63
C      14.03      22.10      28.73
C      14.26      23.33      29.40
C      15.51      23.57      30.01
C      14.80      19.95      27.81
C      15.80      24.79      30.67
C      16.49      20.94       7.64
C      16.28      22.14       8.34
C      15.03      22.40       8.97
C      14.03      21.40       8.87
C      14.26      20.18       8.21
C      15.50      19.93       7.59
C      14.80      23.55       9.79
C      15.79      18.71       6.94
C      16.49      10.58      19.61
C      16.28      11.29      18.41
C      15.02      11.91      18.15
C      14.02      11.82      19.16
C      14.26      11.15      20.38
C      15.50      10.53      20.62
C      14.80      12.74      17.00
C      15.80       9.88      21.84
C      16.50      32.91      17.99
C      16.28      32.21      19.19
C      15.03      31.58      19.45
C      14.03      31.68      18.45
C      14.27      32.34      17.22
C      15.52      32.96      16.98
C      14.81      30.76      20.60
C      15.81      33.62      15.76
C      22.70      11.67       7.14
C      23.86      10.93       6.85
C      24.19       9.78       7.63
C      23.34       9.45       8.71
C      22.18      10.20       9.00
C      21.86      11.35       8.23
C      25.41       9.07       7.48
C      20.65      12.08       8.41
C      22.70      31.83      30.46
C      23.86      32.57      30.75
C      24.19      33.72      29.98
C      23.34      34.06      28.90
C      22.18      33.31      28.61
C      21.86      32.16      29.37
C      25.41      34.44      30.14
C      20.65      31.43      29.19
C      22.70      33.41       8.71
C      23.85      33.71       7.96
C      24.18      32.95       6.81
C      23.33      31.87       6.47
C      22.18      31.57       7.22
C      21.86      32.33       8.38
C      25.40      33.12       6.08
C      20.65      32.14       9.10
C      22.70      10.09      28.88
C      23.86       9.80      29.63
C      24.19      10.58      30.77
C      23.34      11.66      31.11
C      22.18      11.95      30.36
C      21.86      11.18      29.21
C      25.41      10.42      31.48
C      20.65      11.36      28.48
C       7.32      31.26       8.02
C       6.38      32.23       7.64
C       6.64      33.61       7.86
C       7.84      33.96       8.52
C       8.78      32.98       8.90
C       8.53      31.60       8.68
C       5.67      34.63       7.61
C       9.48      30.57       8.93
C       7.32      12.23      29.59
C       6.38      11.25      29.98
C       6.65       9.87      29.76
C       7.85       9.53      29.09
C       8.79      10.51      28.71
C       8.52      11.89      28.93
C       5.69       8.85      30.02
C       9.48      12.92      28.68
C       7.32      10.96       9.28
C       6.39      10.57       8.30
C       6.65      10.79       6.92
C       7.85      11.46       6.58
C       8.79      11.84       7.56
C       8.53      11.61       8.93
C       5.69      10.53       5.90
C       9.49      11.86       9.97
C       7.32      32.54      28.32
C       6.38      32.93      29.29
C       6.65      32.71      30.67
C       7.85      32.04      31.02
C       8.79      31.66      30.04
C       8.53      31.88      28.66
C       5.69      32.97      31.69
C       9.48      31.62      27.63
N      26.08       8.94       6.29
N       0.63       4.31       8.36
N      30.78       9.23       0.08
N       4.77       9.53       5.98
N      26.07      34.56      31.32
N       0.64      39.19      29.24
N      30.78      34.28      37.52
N       4.77      33.97      31.61
N      26.06      34.30       5.96
N       0.62      32.19       1.35
N      30.79      40.48       6.27
N       4.75      34.54       6.61
N      26.08       9.24      31.61
N       0.63      11.31      36.24
N      30.78       3.02      31.32
N       4.77       8.93      31.02
N      10.49      30.71      27.74
N      15.82      26.05      30.13
N      15.37      30.97      21.83
N      20.03      31.26      27.99
N      10.49      12.78       9.86
N      15.81      17.45       7.47
N      15.37      12.53      15.78
N      20.03      12.25       9.61
N      10.49      12.81      27.77
N      15.82      10.42      23.10
N      15.37      18.72      28.02
N      20.03      12.56      28.31
N      10.49      30.68       9.85
N      15.83      33.08      14.50
N      15.37      24.78       9.58
N      20.03      30.94       9.27
O       1.99      42.21       7.35
O      28.85       2.57       7.77
O       0.90       2.93      10.21
O      29.39      41.89       5.04
O       1.98       1.29      30.25
O      28.85      40.93      29.82
O       0.91      40.57      27.38
O      29.38       1.61      32.55
O       1.98      33.19      39.26
O      28.84      32.79      43.10
O       0.89      30.34      43.46
O      29.38      35.51      38.93
O       1.98      10.30      41.82
O      28.84      10.73      37.98
O       0.90      13.16      37.62
O      29.37       8.00      42.15
O      17.34      20.51      29.15
O      13.26      24.25      29.48
O      16.06      24.68      31.99
O      13.96      20.10      26.76
O      17.34      22.99       8.45
O      13.25      19.26       8.13
O      16.05      18.82       5.61
O      13.96      23.40      10.84
O      17.33      11.40      17.56
O      13.26      11.07      21.30
O      16.05       8.55      21.73
O      13.96      13.79      17.16
O      17.34      32.10      20.05
O      13.27      32.42      16.30
O      16.07      34.94      15.87
O      13.97      29.71      20.45
O      24.65      11.36       5.83
O      21.39       9.76      10.02
O      19.95      12.35       7.28
O      26.11       8.82       8.62
O      24.65      32.14      31.77
O      21.39      33.75      27.59
O      19.95      31.14      30.32
O      26.10      34.69      29.00
O      24.63      34.74       8.39
O      21.39      30.55       6.78
O      19.95      33.27       9.42
O      26.09      31.98       5.82
O      24.65       8.78      29.19
O      21.39      12.97      30.80
O      19.95      10.23      28.20
O      26.11      11.56      31.73
O       5.22      31.79       7.07
O       9.94      33.43       9.47
O       9.64      29.66       7.94
O       5.44      35.50       8.62
O       5.23      11.68      30.56
O       9.94      10.07      28.14
O       9.64      13.83      29.68
O       5.47       7.97      29.02
O       5.23      10.00       8.73
O       9.95      12.40       7.11
O       9.64      10.89      10.89
O       5.46      11.53       5.02
O       5.23      33.51      28.86
O       9.94      31.09      30.48
O       9.64      32.61      26.71
O       5.46      31.96      32.57
