14

Cu      -4.03       8.53       0.98
O      -4.43       6.78       1.80
O      -6.90       8.53      -0.15
Cu      -5.28       7.82      -1.00
C      -6.82       9.01       1.04
C      -5.14       5.95       1.14
O      -4.89       9.61      -1.76
O      -2.43       7.80       0.08
O      -3.60       7.16      -1.77
O      -3.69      10.24       0.09
O      -5.75       9.22       1.70
O      -5.58       6.10      -0.06
C      -4.15      10.42      -1.10
C      -2.52       7.34      -1.11
