14

C      -2.49       1.47       7.27
C      -4.13       2.52      10.20
O      -6.88       2.78       8.18
O      -4.42       3.98       5.80
Cu      -5.26       1.73       7.73
O      -5.62       2.04       5.82
O      -5.74       4.76       8.10
Cu      -4.02       3.84       7.72
O      -3.58       0.79       7.30
O      -3.71       3.60       9.64
C      -6.81       4.06       8.20
C      -5.16       3.09       5.25
O      -2.41       2.75       7.35
O      -4.81       1.59       9.64
