14

Cu       9.37      -0.71       1.03
Cu       9.38       0.70      -0.97
C       7.65      -1.54      -1.08
C      11.14      -1.50      -1.01
O      10.69       1.86      -0.05
O       7.99       0.48       1.79
C       7.59       1.47       1.09
C      11.07       1.56       1.13
O       7.97      -1.80       0.13
O      10.82      -0.45      -1.66
O      10.74      -1.82       0.16
O       8.07      -0.54      -1.77
O       7.92       1.73      -0.12
O      10.75       0.50       1.79
