16

H       7.26       5.65       7.83
H      10.09       5.66       4.59
H       8.21       6.06       2.96
H       5.38       6.05       6.21
C       8.77       5.62       6.30
C       7.45       5.74       6.76
C       9.06       5.74       4.93
C       9.86       5.28       7.25
C       6.70       6.09       4.49
C       8.02       5.97       4.03
C       6.41       5.97       5.87
C       5.60       6.43       3.54
O      11.07       5.17       6.85
O       9.58       4.99       8.48
O       4.40       6.54       3.95
O       5.89       6.72       2.31
