11

C       9.24      12.26      11.64
O      10.53      11.97      11.64
Co      11.06      10.22      12.16
C      13.00       9.83      10.05
C       9.28       8.12      11.20
N      12.92      10.20      11.34
N      11.60       9.32      13.86
C      14.07      10.58      11.97
C      11.97       9.94      15.01
C      12.00       8.04      13.67
O      10.30       8.92      10.96
