11

Co       6.16      16.63      12.16
C       7.07      16.90      15.00
C       7.10      18.80      13.67
C       4.34      14.60      11.63
N       8.02      16.65      11.35
N       6.70      17.52      13.86
O       5.63      14.89      11.64
O       5.39      17.89      10.92
C       8.10      17.02      10.05
C       4.38      18.70      11.17
C       9.16      16.27      11.97
