24

C       8.08       0.03      13.39
C       3.03      -0.33      13.54
C       5.84      -3.72      10.99
H       4.23      -1.40      11.24
H       3.51      -2.70      12.21
H       4.44      -1.68      14.30
O       8.04       1.24      13.79
H       5.49       0.59      14.25
H       5.41       0.60      12.49
H       6.90      -1.47      14.21
O       2.70       0.60      12.75
O       2.21      -0.65      14.52
H       5.78      -3.35      13.05
O       6.53      -4.78      11.20
O       5.35      -3.47       9.82
H       7.83      -2.32      12.08
H       6.84      -1.18      11.17
C       4.34      -1.06      13.40
C       4.35      -1.99      12.16
O       9.21      -0.52      13.10
C       5.51      -0.06      13.37
C       6.84      -0.83      13.31
C       6.88      -1.77      12.09
C       5.69      -2.74      12.13
