21

Mn       3.42       8.70       0.97
Mn       6.28       9.23      -0.97
Mn       0.14       8.97      -0.00
C       3.26       8.79      -1.68
C       8.50      10.41      -2.48
O       0.74      10.58       0.88
O       2.80      10.41       1.81
O       5.43       8.48       1.22
O       7.29       9.64       0.87
O       2.46       7.48       2.27
O       0.33       8.02       1.67
O      -0.47       7.35      -0.88
O       6.89       7.53      -1.81
C       1.63      10.91       1.74
O       4.26       9.47      -1.21
O       2.40       8.31      -0.86
O       7.23      10.45      -2.27
O      -0.06       9.91      -1.67
C       6.43       9.16       1.69
C       1.19       7.52       2.48
C       8.07       7.02      -1.75
