69

C       0.04      -1.50       8.78
Cd       1.73       1.24       8.97
Cd      -2.88      -1.54       9.52
Cd       6.35       0.33      11.65
C       0.04       1.35       6.19
C      -0.37       1.69       4.90
C       0.35       2.66       4.20
C       1.46       3.26       4.82
C       1.80       2.86       6.11
C      -3.26      -0.70      12.63
C      -1.11      -1.55      12.39
C      -4.58      -0.33      11.99
C      -4.58      -4.00      10.81
C      -4.99      -5.28      11.16
C      -4.27      -6.37      10.67
C      -3.16      -6.14       9.84
C      -2.81      -4.82       9.54
C       5.97       2.61       9.38
C       8.11       2.81      10.23
C       4.65       1.87       9.38
C       4.66       2.68      13.14
C       4.25       3.62      14.08
C       4.97       3.74      15.27
C       6.08       2.91      15.47
C       6.42       1.99      14.49
H      -0.50       0.61       6.78
N       6.30      -1.51      10.20
H      -1.25       1.21       4.47
H       0.06       2.95       3.20
N       1.68       0.91      11.29
H       2.07       4.01       4.33
H       2.66       3.30       6.62
N      -2.93       0.63       8.65
N       2.33      -0.94       8.13
H      -5.11      -3.11      11.16
N       1.10       1.93       6.79
N      -2.28      -1.18      11.83
H      -5.86      -5.41      11.79
N      -3.51      -3.77      10.02
N       6.94       2.14      10.19
H      -4.57      -7.39      10.91
N       5.72       1.87      13.34
H      -2.55      -6.94       9.43
H      -1.95      -4.60       8.91
O       5.32      -1.39      12.78
H       4.12       2.54      12.20
H       3.37       4.24      13.88
H       4.68       4.47      16.02
O       0.70       3.08       9.89
H       6.69       2.96      16.37
H       7.28       1.33      14.61
O      -3.94      -1.66       7.48
O      -0.15      -0.30       9.14
O      -0.81      -2.44       8.89
C       5.69      -2.59      10.73
O      -4.77      -0.64      10.78
O      -5.42       0.25      12.74
C       6.91      -1.60       9.01
C       5.05      -2.46      12.12
O       4.46       0.95      10.23
O       3.79       2.25       8.51
C       1.08       1.91      11.96
C       2.29      -0.07      11.96
C       0.45       3.05      11.15
C      -3.54       0.72       7.45
C      -2.32       1.71       9.17
C      -4.19      -0.54       6.87
C       1.36      -1.87       8.14
C       3.50      -1.24       7.53
