20

C       1.58       3.20      32.93
N       3.89       9.97      29.68
N       4.57      10.23      30.78
H       4.86       9.13      32.62
H       2.64       8.34      29.05
O       0.83       2.57      32.13
O       1.85       2.76      34.09
C       1.82       5.68      33.19
Br       0.63       5.61      34.71
Br       1.78       8.54      33.62
Br       3.51       2.91      30.48
Br       4.69       5.83      29.41
C       2.31       6.91      32.73
C       3.13       6.97      31.58
C       3.49       5.78      30.92
C       2.99       4.54      31.37
C       2.15       4.49      32.50
C       4.39       9.20      31.64
C       3.57       8.27      31.04
C       3.26       8.79      29.80
