20

O      17.47      31.69      18.81
O      18.47      31.43      16.85
N      20.44      24.28      21.48
H      19.38      26.03      22.17
H      20.95      24.87      18.37
N      20.91      23.92      20.31
C      18.17      31.00      18.01
C      20.66      24.89      19.41
C      19.98      25.91      20.06
C      19.86      25.49      21.37
C      18.14      27.50      19.45
C      19.52      27.19      19.48
C      20.45      28.11      18.96
Br      16.85      26.20      20.08
C      20.01      29.35      18.44
C      17.70      28.73      18.94
Br      22.34      27.72      19.02
C      18.64      29.67      18.46
Br      15.81      29.11      18.87
Br      21.30      30.63      17.80
