20

O      17.03       0.23      20.05
O      18.01       1.94      19.03
C      19.24       4.36      25.88
C      19.53       3.16      25.24
C      20.40       2.50      26.09
Br      15.36       2.28      21.93
Br      16.38       3.06      25.00
Br      20.83       1.35      20.33
Br      21.89       2.60      23.21
C      17.68       2.65      23.63
C      19.06       2.72      23.91
C      19.99       2.38      22.91
C      19.55       1.91      21.66
C      18.17       1.83      21.39
C      17.23       2.23      22.36
C      17.70       1.31      20.08
H      18.61       5.15      25.51
N      19.91       4.38      27.05
N      20.61       3.27      27.17
H      20.86       1.54      25.92
