20

O      19.55      33.72      15.46
O      19.43      35.72      16.42
N      26.54      38.40      13.13
H      25.02      36.29      11.26
N      26.41      37.77      11.99
H      25.43      38.36      14.98
C      20.02      34.88      15.67
C      22.35      36.54      13.21
C      23.60      36.37      13.85
C      23.68      35.61      15.04
C      22.51      35.08      15.62
C      21.27      35.29      15.00
C      21.19      35.99      13.78
Br      19.49      36.18      12.89
Br      22.21      37.61      11.61
Br      22.61      34.08      17.26
Br      25.39      35.28      15.87
C      25.37      36.93      12.06
C      24.81      37.04      13.33
C      25.58      37.99      13.98
