20

C       4.53      25.67      19.90
C       3.27      25.13      20.04
C       2.56      26.02      20.81
Br       3.26      19.77      20.59
Br       4.32      22.71      21.73
Br       0.31      22.47      16.40
Br       1.46      25.41      17.50
C       1.33      20.05      18.13
C       3.18      22.64      20.18
C       2.80      23.83      19.53
C       1.96      23.78      18.40
C       1.49      22.54      17.92
C       1.86      21.35      18.58
C       2.71      21.40      19.71
H       5.36      25.25      19.35
N       4.56      26.84      20.56
N       3.37      27.05      21.11
H       1.54      25.92      21.15
O       1.63      19.62      16.97
O       0.59      19.39      18.92
