20

C      15.67      19.97       1.10
N      13.45      26.74       4.49
H      12.03      25.59       1.84
N      12.54      26.84       3.54
H      14.97      25.27       4.93
O      15.40      19.55      -0.07
O      16.42      19.31       1.88
Br      14.08      19.65       3.80
Br      13.00      22.55       5.01
Br      16.18      22.41      -0.86
C      13.95      22.51       3.33
C      14.14      23.70       2.60
C      12.66      25.79       2.70
C      13.69      24.99       3.16
C      14.17      25.61       4.29
C      14.77      23.66       1.34
C      14.42      21.28       2.82
C      15.25      22.43       0.83
Br      15.05      25.29       0.34
C      15.09      21.24       1.58
