20

C      18.01      18.38      31.13
N      20.83      20.47      24.13
H      20.85      18.63      25.25
H      19.15      22.50      25.96
N      20.32      21.66      24.35
C      19.50      20.67      28.51
C      19.29      19.92      27.32
C      18.60      18.68      27.41
C      18.16      18.19      28.65
C      18.41      18.93      29.82
C      19.07      20.17      29.75
Br      19.41      21.15      31.38
Br      20.56      22.29      28.50
Br      17.19      16.53      28.77
Br      18.11      17.70      25.81
C      19.68      21.65      25.54
C      19.77      20.38      26.08
C      20.51      19.65      25.15
O      18.82      17.61      31.74
O      16.87      18.67      31.60
