20

C      29.61      25.18       2.60
C      30.61      26.00       3.09
C      31.04      25.39       4.25
Br      34.81      29.01       1.65
Br      33.71      26.06       2.54
Br      29.24      30.82       1.17
Br      28.29      28.10       2.73
C      32.44      31.07       0.90
C      32.45      27.49       2.27
C      31.08      27.29       2.52
C      30.15      28.31       2.25
C      30.59      29.52       1.67
C      31.97      29.76       1.44
C      32.90      28.73       1.77
H      29.03      25.34       1.71
N      29.46      24.15       3.45
H      31.81      25.74       4.92
N      30.33      24.26       4.43
O      33.51      31.12       0.22
O      31.78      32.12       1.14
