20

C       2.42      29.97      24.84
C       2.93      31.02      25.59
C       3.96      31.55      24.83
Br       4.39      31.91      30.70
Br       5.20      30.67      27.74
Br      -1.01      32.90      28.77
Br      -0.06      31.99      25.72
C       3.44      31.41      28.01
C       2.51      31.44      26.95
C       1.20      31.91      27.18
C       0.82      32.35      28.46
C       1.76      32.36      29.51
C       3.07      31.87      29.29
C       1.38      32.91      30.84
H       1.62      29.30      25.12
N       3.13      29.89      23.70
H       4.60      32.37      25.10
N       4.05      30.84      23.70
O       1.63      32.24      31.89
O       0.82      34.04      30.89
