20

Br      20.38      17.77       4.53
Br      23.17      19.16       5.56
Br      22.04      18.76      -1.01
Br      25.05      19.48       0.08
C      22.89      18.89       3.66
C      23.89      19.26       2.74
C      23.64      19.12       1.36
C      22.38      18.70       0.90
C      21.37      18.31       1.82
C      21.65      18.39       3.21
C      25.17      19.83       3.20
C      25.72      21.05       2.82
C      26.06      19.32       4.13
C      20.04      17.86       1.34
N      26.87      21.23       3.49
H      25.30      21.75       2.12
N      27.07      20.20       4.29
H      25.97      18.39       4.67
O      19.95      17.23       0.23
O      18.99      18.11       2.01
