20

C      32.41       1.53       2.80
H      31.67       5.32       8.31
N      29.86       4.95       9.43
N      28.84       4.14       9.26
H      28.36       2.65       7.78
O      33.57       1.77       2.36
C      32.17       2.84       6.37
C      30.83       3.29       6.40
O      31.64       0.72       2.19
C      30.05       3.25       5.22
C      31.90       2.20       4.02
C      32.70       2.28       5.18
Br      34.48       1.52       5.20
Br      33.25       2.80       7.97
C      30.76       4.75       8.45
C      30.27       3.77       7.60
C      29.04       3.41       8.15
Br      29.56       2.82       2.40
C      30.59       2.73       4.03
Br      28.30       4.07       5.16
