29

H       0.66       1.93       8.98
H       5.53       2.79       8.08
H       8.05       0.84      10.49
H       3.98       1.93       8.98
H       6.45      -0.59      10.89
N       8.72       3.06       8.26
N       3.26      -0.71      10.66
C       7.29       4.41       6.91
O       6.21       4.92       6.76
C      10.34       2.02       9.67
O      11.17       2.46       8.81
O      10.61       1.52      10.76
C       7.46       3.31       7.88
O       1.46       1.85       9.16
C       1.67       0.66       9.62
O       5.67      -2.68      12.24
C       4.56      -2.23      11.96
O       0.82      -0.17       9.83
C       6.38       2.60       8.39
C       6.57       1.63       9.35
C       7.87       1.45       9.81
C       8.89       2.17       9.26
C       3.10       0.38       9.91
C       4.14       1.17       9.49
C       5.43       0.82       9.84
C       5.60      -0.32      10.63
C       4.50      -1.04      11.02
O       8.38       4.81       6.32
O       3.43      -2.66      12.36
