13

H       5.31       8.11      18.81
H       3.13       7.10      19.52
H       2.85       4.61      19.40
H       6.74       4.12      18.06
O       7.64       7.92      17.65
O       8.49       5.82      17.89
N       4.78       4.27      18.74
C       7.57       6.65      17.93
C       6.19       6.19      18.36
C       5.17       7.03      18.78
C       3.95       6.47      19.18
C       3.79       5.09      19.14
C       5.96       4.81      18.36
