13

H       8.74      11.54       0.88
H      10.91      12.55       0.16
H      11.19      15.04       0.26
H       7.30      15.53       1.61
O       6.39      11.73       1.99
O       5.57      13.85       1.85
N       9.26      15.38       0.92
C       6.47      13.00       1.76
C       7.85      13.47       1.32
C       8.88      12.62       0.90
C      10.09      13.18       0.49
C      10.25      14.56       0.52
C       8.08      14.84       1.31
