13

H       1.71      17.96       0.86
H       3.90      16.95       0.19
H       4.18      14.46       0.30
H       0.27      13.96       1.59
C      -0.56      16.49       1.73
C       0.82      16.03       1.31
C       1.85      16.88       0.89
C       3.07      16.32       0.51
N       2.23      14.12       0.92
C       1.05      14.65       1.29
O      -0.64      17.76       1.99
O      -1.47      15.64       1.79
C       3.24      14.94       0.54
