13

C       6.47      16.51       8.09
C       7.84      16.04       8.52
C       8.88      16.89       8.94
C      10.09      16.32       9.34
H       8.74      17.97       8.96
C       8.07      14.66       8.54
H      10.91      16.94       9.67
H       7.28      13.98       8.24
O       6.39      17.79       7.84
O       5.56      15.68       8.02
N       9.23      14.12       8.93
C      10.24      14.94       9.32
H      11.17      14.45       9.58
