13

N      13.07       0.81       2.35
O      17.24       2.39       0.60
H      15.63       3.73       2.16
H      13.53       3.94       3.54
H      11.92       2.00       3.60
H      14.32      -0.21       1.08
C      12.85       1.96       3.03
C      16.30       1.53       0.57
C      15.14       1.74       1.52
C      14.92       2.92       2.23
C      13.75       3.02       2.99
O      16.22       0.52      -0.19
C      14.19       0.72       1.61
