13

O       6.35       1.96      17.76
O       5.54       1.77      15.64
N       9.25       0.92      14.14
C       6.44       1.71      16.49
C       7.83       1.29      16.04
C       8.85       0.87      16.90
C      10.07       0.49      16.35
C      10.25       0.53      14.97
C       8.07       1.29      14.67
H       8.70       0.83      17.98
H      10.89       0.16      16.98
H      11.19       0.29      14.50
H       7.29       1.59      13.98
