13

O       9.18      10.00       9.29
O      10.20       9.20       7.42
C       9.26       9.23       8.28
C       8.09       8.29       8.08
C       7.86       7.57       6.90
C       6.69       6.82       6.80
C       5.79       6.79       7.87
C       7.14       8.21       9.09
H       8.58       7.63       6.08
H       6.46       6.27       5.89
H       4.86       6.22       7.83
H       7.27       8.74      10.02
N       6.02       7.47       9.00
