13

O       7.71      17.69       1.91
O       8.54      17.88       4.03
C       7.63      17.94       3.19
C       6.25      18.37       3.64
C       5.22      18.78       2.78
C       4.01      19.18       3.34
C       3.84      19.15       4.72
C       6.01      18.38       5.01
N       4.84      18.77       5.54
H       5.37      18.81       1.71
H       3.18      19.50       2.70
H       2.90      19.40       5.20
H       6.79      18.09       5.71
