13

C       4.83      18.13      10.44
C       5.99      17.93      11.38
C       6.22      16.75      12.09
C       7.39      16.64      12.85
H       9.22      17.66      13.44
N       8.07      18.84      12.19
C       8.29      17.70      12.88
C       6.95      18.94      11.46
H       6.83      19.87      10.92
O       4.91      19.14       9.67
O       3.89      17.27      10.48
H       5.50      15.93      12.04
H       7.62      15.73      13.40
