13

O       4.86       0.16      19.14
O       3.82      -0.68      17.30
N       8.01      -2.38      18.85
C       4.77      -0.62      18.15
C       5.93      -1.56      17.94
C       6.16      -2.27      16.76
C       7.33      -3.02      16.65
C       8.23      -3.05      17.71
C       6.89      -1.64      18.95
H       5.44      -2.21      15.94
H       7.57      -3.56      15.73
H       9.17      -3.61      17.67
H       6.76      -1.11      19.88
