13

O      10.88      17.27      19.03
H      12.50      15.90      17.50
H      14.61      15.69      16.14
H      16.22      17.63      16.08
H      13.84      19.83      18.62
C      15.29      17.67      16.65
N      15.07      18.80      17.34
C      11.83      18.11      19.09
C      13.00      17.89      18.16
C      13.22      16.71      17.44
C      14.39      16.60      16.68
O      11.93      19.11      19.86
C      13.96      18.90      18.08
