13

H       1.71      11.52       8.98
H       3.89      12.53       9.67
H       4.17      15.02       9.57
H       0.27      15.52       8.25
C      -0.57      12.99       8.11
C       0.82      13.45       8.53
C       1.85      12.60       8.95
C       3.06      13.16       9.35
C       3.23      14.54       9.32
C       1.05      14.83       8.55
N       2.23      15.36       8.93
O      -0.65      11.73       7.83
O      -1.47      13.83       8.08
