13

O       4.89       9.65      10.40
O       3.86      10.46      12.26
C       4.80      10.42      11.41
C       5.97      11.36      11.61
C       6.20      12.08      12.79
C       7.38      12.83      12.88
C       8.27      12.86      11.82
C       6.92      11.43      10.60
N       8.04      12.17      10.68
H       5.49      12.03      13.61
H       7.61      13.38      13.79
H       9.20      13.42      11.85
H       6.79      10.89       9.67
