26

H       9.34      10.30      21.19
H       7.07      11.33      21.10
H       8.75      15.06      22.44
H      11.01      14.01      22.54
H       4.81      16.84      21.19
H       7.08      15.81      21.10
H       5.40      12.08      22.44
H       3.14      13.12      22.54
C      11.61      11.41      22.03
C      10.30      12.08      21.88
C       9.19      11.34      21.47
C       7.93      11.92      21.42
C       7.75      13.27      21.77
C       8.88      14.02      22.15
C      10.14      13.44      22.21
C       2.54      15.73      22.03
C       3.85      15.05      21.88
C       4.96      15.80      21.47
C       6.22      15.22      21.42
C       6.40      13.87      21.77
C       5.27      13.12      22.15
C       4.01      13.70      22.21
O      11.70      10.15      21.83
O      12.64      12.06      22.41
O       2.45      16.99      21.83
O       1.51      15.07      22.41
