26

H       5.49       0.26      13.08
H       4.21       0.29      10.95
H       3.54       4.52      11.45
H       4.85       4.47      13.57
H       2.19       0.47       9.99
H       3.69       4.44       9.25
H       1.01       0.53       7.80
H       2.48       4.49       7.08
O       0.48       1.42       5.59
O       6.55       1.28      15.13
O       6.04       3.49      15.36
O       1.07       3.60       5.31
C       5.25       2.37      13.45
C       5.05       1.19      12.72
C       4.32       1.21      11.54
C       3.78       2.41      11.05
C       3.98       3.59      11.79
C       4.71       3.57      12.98
C       3.04       2.45       9.78
C       2.27       1.35       9.35
C       3.09       3.58       8.95
C       1.02       2.52       5.96
C       1.69       2.50       7.30
C       1.61       1.38       8.13
C       2.43       3.61       7.73
C       6.01       2.39      14.75
