26

C       4.81       1.35      22.38
C       3.98       3.58      21.98
O       6.00       3.60      18.33
O       1.03       3.49      28.39
C       6.05       2.52      18.99
C       5.38       2.50      20.33
C       5.47       1.38      21.16
C       4.65       3.61      20.76
C       1.06       2.39      27.77
H       1.58       0.26      26.11
H       2.86       0.29      23.98
H       3.54       4.52      24.48
H       2.22       4.47      26.60
H       4.89       0.47      23.02
H       3.38       4.44      22.28
H       6.07       0.53      20.83
H       4.59       4.49      20.11
C       3.09       3.59      24.82
C       2.37       3.57      26.01
C       1.82       2.37      26.48
C       2.02       1.19      25.75
C       2.75       1.21      24.57
C       3.29       2.41      24.08
O       6.60       1.42      18.62
O       0.53       1.28      28.15
C       4.04       2.45      22.81
