26

O       1.51       6.03       3.65
C       2.54       6.68       4.02
C       3.85       6.01       4.17
C       4.96       6.75       4.59
C       6.22       6.17       4.64
C       6.40       4.82       4.29
C       5.27       4.07       3.91
C       4.01       4.65       3.84
O      11.70       1.10       4.23
O      12.64       3.02       3.65
C      11.61       2.36       4.02
C      10.30       3.04       4.17
C       9.19       2.29       4.59
C       7.93       2.87       4.64
C       7.75       4.22       4.29
C       8.88       4.97       3.91
C      10.14       4.39       3.84
H       4.81       7.79       4.87
H       7.08       6.76       4.96
H       5.40       3.03       3.61
H       3.14       4.08       3.52
H       9.34       1.25       4.87
H       7.07       2.28       4.96
H       8.75       6.02       3.61
H      11.01       4.97       3.52
O       2.45       7.94       4.23
