26

O      13.67       7.63       5.59
O       7.60       7.77      15.13
O       8.11       5.56      15.36
O      13.08       5.45       5.31
C       8.90       6.68      13.45
C       9.09       7.86      12.72
C       9.82       7.84      11.54
C      10.37       6.64      11.05
C      10.17       5.46      11.79
C       9.44       5.48      12.98
C      11.11       6.60       9.78
C      11.88       7.70       9.35
C      11.06       5.46       8.95
C      13.13       6.53       5.96
C      12.46       6.55       7.30
C      12.54       7.67       8.13
C      11.72       5.43       7.73
C       8.14       6.66      14.75
H       8.66       8.79      13.08
H       9.94       8.75      10.95
H      10.61       4.52      11.45
H       9.30       4.58      13.57
H      11.96       8.58       9.99
H      10.46       4.60       9.25
H      13.14       8.52       7.80
H      11.67       4.56       7.08
