26

H       5.49       9.30      12.97
C       5.25      11.41      12.60
C       5.05      10.23      13.33
C       4.32      10.25      14.52
H       4.85      13.51      12.49
C       3.98      12.63      14.26
C       4.71      12.61      13.08
H       4.21       9.34      15.10
C       3.78      11.46      15.01
C       3.09      12.63      17.11
H       1.01       9.57      18.26
H       2.48      13.53      18.98
H       2.19       9.51      16.06
C       2.27      10.39      16.70
C       3.04      11.49      16.28
C       1.02      11.56      20.09
C       1.69      11.55      18.76
C       1.61      10.42      17.92
C       2.43      12.66      18.33
C       6.01      11.43      11.31
H       3.54      13.57      14.60
O       0.48      10.46      20.47
O       6.55      10.32      10.93
O       6.04      12.53      10.69
O       1.07      12.64      20.75
H       3.69      13.49      16.81
