26

H       1.58       9.30      26.00
H       2.86       9.34      28.13
H       3.54      13.57      27.63
H       2.22      13.51      25.51
H       4.89       9.51      29.09
H       3.38      13.49      29.83
H       6.07       9.57      31.29
H       4.59      13.53      32.01
C       1.82      11.41      25.63
C       2.02      10.23      26.36
C       2.75      10.25      27.55
C       3.29      11.46      28.04
C       3.09      12.63      27.29
C       2.37      12.61      26.11
C       4.04      11.49      29.31
C       4.81      10.39      29.73
C       3.98      12.63      30.14
C       6.05      11.56      33.12
C       5.38      11.55      31.78
C       5.47      10.42      30.95
C       4.65      12.66      31.36
C       1.06      11.43      24.34
O       6.60      10.46      33.50
O       0.53      10.32      23.96
O       1.03      12.53      23.72
O       6.00      12.64      33.78
