20

H       0.55       7.99      24.11
H       0.72       5.49      24.18
H      -0.85       5.43      20.15
H      -0.98       7.93      20.27
H      -0.55       1.05      24.11
H      -0.72       3.56      24.18
H       0.85       3.62      20.15
H       0.98       1.12      20.27
C       0.25       7.37      23.26
C       0.34       5.99      23.29
C      -0.04       5.26      22.16
C      -0.52       5.96      21.04
C      -0.60       7.34      21.10
C      -0.25       1.67      23.26
C      -0.34       3.05      23.29
C       0.04       3.79      22.16
C       0.52       3.09      21.04
N      -0.21       8.04      22.19
N       0.21       1.01      22.19
C       0.60       1.70      21.10
