26

H       2.27      16.84       8.16
H      -0.00      15.81       8.07
H       1.67      12.08       9.42
H       3.93      13.12       9.51
C       4.54      15.73       9.00
C       3.22      15.05       8.86
C       2.11      15.80       8.44
C       0.85      15.22       8.39
C       0.67      13.87       8.74
C       1.80      13.12       9.12
C       3.06      13.70       9.18
H      -2.27      10.30       8.16
H       0.00      11.33       8.07
H      -1.67      15.06       9.42
H      -3.93      14.01       9.51
C      -4.54      11.41       9.00
C      -3.22      12.08       8.86
C      -2.11      11.34       8.44
C      -0.85      11.92       8.39
C      -0.67      13.27       8.74
C      -1.80      14.02       9.12
C      -3.06      13.44       9.18
O       4.63      16.99       8.80
O       5.57      15.07       9.38
O      -4.63      10.15       8.80
O      -5.57      12.06       9.38
