22

H       3.21      11.98       6.51
H       7.35      13.20       4.33
H       9.13      11.98       3.18
H       3.21       9.48       6.51
H       7.35       8.26       4.33
H       9.13       9.48       3.18
O       6.06      14.30       5.49
O       3.81      14.17       5.50
O       6.06       7.16       5.49
O       3.81       7.28       5.50
C       4.97      13.64       5.49
C       5.07      12.15       5.48
C       6.19      11.45       4.89
C       4.04      11.43       6.08
C       7.29      12.12       4.27
C       8.30      11.43       3.63
C       4.97       7.82       5.49
C       5.07       9.31       5.48
C       6.19      10.00       4.89
C       4.04      10.03       6.08
C       7.29       9.33       4.27
C       8.30      10.03       3.63
