28

C       8.94       8.49       0.96
C       8.20       9.77       0.74
C       8.58      10.69      -0.25
C       7.82      11.83      -0.47
C       6.66      12.08       0.31
C       6.31      11.16       1.33
C       7.07      10.03       1.54
C       5.86      13.22       0.09
H       1.51      16.90       0.87
H       2.87      14.85       1.23
H       5.55      16.04      -1.93
H       4.16      18.11      -2.29
C       2.02      18.90      -0.97
C       2.76      17.63      -0.74
C       2.39      16.71       0.25
C       3.15      15.56       0.47
C       4.31      15.31      -0.31
C       4.66      16.24      -1.33
C       3.90      17.38      -1.53
C       5.12      14.18      -0.09
O       0.91      19.11      -0.34
O       2.50      19.76      -1.76
O      10.05       8.28       0.34
O       8.44       7.62       1.74
H       9.46      10.49      -0.87
H       8.10      12.54      -1.24
H       5.43      11.36       1.94
H       6.81       9.29       2.30
