28

C       6.65      12.07      16.43
C       5.91      10.79      16.20
C       6.28       9.87      15.21
C       5.51       8.73      14.99
C       4.35       8.48      15.77
C       4.00       9.41      16.79
C       4.77      10.54      16.99
C       3.55       7.35      15.54
H       7.15      10.07      14.59
H       5.79       8.02      14.22
H       3.12       9.21      17.39
H       4.51      11.28      17.75
O       7.76      12.28      15.79
O       6.18      12.93      17.23
H      -0.80       3.67      16.33
H       0.57       5.72      16.69
H       3.24       4.52      13.52
O      -1.43       1.49      15.11
O       0.16       0.80      13.70
H       1.85       2.46      13.16
C      -0.31       1.68      14.49
C       0.45       2.95      14.71
C       0.08       3.86      15.71
C       0.85       5.00      15.92
C       2.00       5.25      15.14
C       2.35       4.33      14.13
C       1.58       3.19      13.92
C       2.81       6.38      15.37
