13

C       6.32      15.01       2.38
C       7.17      14.92       1.18
O       6.52      14.95       6.87
O       4.31      15.35       6.74
O       8.40      14.65       1.31
O       6.60      15.11       0.04
S       7.05      14.88       3.94
H       3.46      15.39       4.09
H       4.31      15.28       1.59
C       5.44      15.13       6.19
C       5.53      15.09       4.72
C       4.50      15.25       3.80
C       4.95      15.20       2.47
