13

S       4.06       0.29      20.03
C       4.03       2.99      20.67
C       3.27       1.81      20.21
C       1.92       1.75      19.86
C       1.54       0.46      19.45
C       2.59      -0.45      19.49
C       2.55      -1.90      19.21
H       0.54       0.17      19.13
H       1.26       2.61      19.92
O       3.37       4.11      20.81
O       5.27       2.91      20.88
O       1.41      -2.42      18.97
O       3.65      -2.56      19.24
