13

O      10.49       2.63       0.95
O      12.73       2.50       1.22
O      10.77      -4.04      -0.62
O       8.88      -2.84      -0.69
C      11.59       1.97       0.99
S      10.08      -0.22       0.16
C      11.55       0.52       0.70
C      10.12      -2.92      -0.47
C      10.88      -1.74      -0.02
C      12.22      -1.68       0.33
C      12.60      -0.38       0.74
H      12.89      -2.53       0.28
H      13.60      -0.10       1.06
