13

H       3.62      15.43      14.19
H       2.77      15.31      11.70
O       0.57      14.98      16.99
O       2.78      15.38      16.85
O      -1.33      14.69      11.43
O       0.46      15.15      10.14
C       0.76      15.05      12.49
C       1.65      15.16      16.30
C       1.56      15.13      14.84
C       2.58      15.28      13.91
C       2.13      15.23      12.58
S       0.03      14.92      14.06
C      -0.10      14.96      11.29
