13

C       4.02      12.98       9.60
C       3.27      11.81      10.06
C       1.92      11.74      10.41
C       1.54      10.45      10.82
C       2.59       9.54      10.77
C       2.56       8.10      11.06
O       3.36      14.09       9.45
O       5.26      12.92       9.38
O       1.42       7.55      11.22
O       3.67       7.46      11.09
S       4.06      10.28      10.23
H       1.26      12.61      10.37
H       0.54      10.17      11.15
