13

C      11.08       7.10       0.48
C      10.32       8.28       0.02
C       8.97       8.34      -0.33
C       8.59       9.63      -0.74
C       9.65      10.54      -0.71
C       9.61      11.98      -1.01
O      10.42       5.99       0.63
S      11.11       9.80      -0.17
O      12.32       7.17       0.70
O       8.48      12.52      -1.22
O      10.73      12.62      -1.02
H       8.31       7.48      -0.27
H       7.59       9.91      -1.06
