20

Zn       5.90       1.37       0.00
Zn       5.90      -1.37       0.00
C       4.07      -0.00       1.89
C       7.72      -0.00       1.89
C       7.72      -0.00      -1.89
C       4.07      -0.00      -1.89
C       4.74       4.13       0.00
C       7.05      -4.13       0.00
C       7.05       4.13       0.00
C       4.74      -4.13       0.00
N       5.90       3.44       0.00
N       5.90      -3.44       0.00
O       4.44       1.14       1.44
O       7.35      -1.14       1.44
O       7.35       1.14      -1.44
O       4.44      -1.14      -1.44
O       7.35      -1.14      -1.44
O       4.44       1.14      -1.44
O       4.44      -1.14       1.44
O       7.35       1.14       1.44
