12

H       0.22       0.49      19.70
H      -0.24      -0.17      17.57
O      -1.46       2.21      18.77
O       0.35       3.42      19.04
O       1.90       1.42      19.33
O       0.88       1.07      16.55
O       1.61      -1.63      18.69
O       2.64      -0.78      16.88
C      -0.25       2.34      18.92
C       0.58       1.07      18.99
C       0.62       0.27      17.69
C       1.70      -0.81      17.77
