12

C       4.84       7.38       4.83
C       3.76       8.46       4.76
H       5.25       7.16       2.82
H       5.71       7.82       4.95
O       6.93       5.44       3.75
O       5.11       4.23       3.48
O       3.57       6.23       3.19
O       4.59       6.58       5.98
O       3.85       9.28       3.83
O       2.82       8.43       5.65
C       5.71       5.31       3.60
C       4.89       6.59       3.53
