912

H      32.21       0.84      11.16
H      32.20       0.77       8.77
H       1.24      32.62      11.21
H       1.24      32.57       8.83
H      34.18      31.70       6.91
H      34.21      31.65       4.52
H      33.59       1.55       6.82
H      33.61       1.50       4.43
H      31.23      33.66       3.79
H      29.43      33.66       2.01
H      33.06      33.72       0.14
H       0.43      33.65      67.14
H       2.29      33.74       3.80
H       4.08      33.71       2.00
H       4.76      31.49      67.78
H       7.15      31.46      67.75
H       4.80       1.36      68.10
H       7.19       1.34      68.04
H       4.06      33.56      65.27
H       2.26      33.56      63.49
H      29.42      33.68      65.29
H      31.20      33.68      63.48
H      34.23       1.38      62.82
H      34.19       1.40      60.43
H      33.57      31.54      62.80
H      33.55      31.56      60.41
H      32.09      32.44      58.54
H      32.00      32.47      56.15
H       1.08       0.62      56.05
H       1.19       0.57      58.44
H      28.75      31.55      68.13
H      26.36      31.57      68.08
H      24.50       0.78      66.33
H      22.11       0.81      66.29
H      21.95      32.35       0.73
H      24.33      32.33       0.80
H      26.40       1.45      67.81
H      28.79       1.43      67.84
H       9.08       0.70       0.77
H      11.47       0.67       0.74
H       9.08      32.11      66.32
H      11.47      32.07      66.32
H       0.77       1.28      45.54
H       0.73       1.34      43.15
H      32.56      32.24      45.49
H      32.53      32.29      43.11
H      31.67      33.72      41.22
H      31.65      33.73      38.83
H       1.53      -0.02      41.17
H       1.49       0.00      38.78
H      33.67       2.39      38.12
H      33.68       4.19      36.34
H      33.73       0.56      34.47
H      33.72      33.24      32.81
H      33.75      31.33      38.13
H      33.72      29.54      36.32
H      31.57      28.92      33.45
H      31.54      26.53      33.41
H       1.44      28.88      33.76
H       1.43      26.49      33.70
H      33.64      29.62      30.94
H      33.64      31.42      29.16
H      33.76       4.26      30.95
H      33.77       2.47      29.15
H       1.49      33.75      28.51
H       1.53      33.72      26.12
H      31.66       0.10      28.43
H      31.69       0.06      26.04
H      32.59       1.38      24.06
H      32.61       1.26      21.68
H       0.71      32.15      21.86
H       0.68      32.26      24.25
H      31.63       4.93      33.80
H      31.65       7.32      33.75
H       0.86       9.18      32.00
H       0.90      11.56      31.96
H      32.38      11.67      35.06
H      32.36       9.29      35.13
H       1.53       7.27      33.48
H       1.50       4.88      33.50
H       0.72      24.54      35.09
H       0.70      22.15      35.07
H      32.19      24.59      31.98
H      32.16      22.20      31.98
H       1.35      32.27      15.71
H      32.36       1.12      17.19
H      32.61       0.67      14.87
H       2.18      31.86      17.83
H       0.87      31.80      18.99
H       1.99      33.19      18.97
H       0.62      32.54      13.46
H      33.43       1.12      19.40
H      32.11      32.07      49.98
H       1.02       0.96      51.57
H       0.60       0.77      49.24
H      31.64      31.22      52.07
H      31.60      32.50      53.27
H      32.96      31.35      53.23
H      32.45      32.83      47.75
H       0.95      34.23      53.76
H      15.92       1.74      68.06
H      17.56      31.51      68.10
H      15.23      31.92      67.99
H      18.03       2.69      68.27
H      19.22       1.79      67.33
H      19.13       1.73       0.45
H      13.68       0.91      68.28
H      19.66      32.55       0.33
H       1.83      17.75      33.72
H      31.60      16.11      33.77
H      32.01      18.45      33.66
H       2.78      15.65      33.94
H       1.88      14.45      33.00
H       1.76      14.48      34.78
H       1.00      19.99      33.94
H      32.58      13.96      34.66
H      25.20      27.17       8.16
H      25.19      27.11       5.77
H      28.57      24.62       8.21
H      28.57      24.57       5.83
H      27.18      23.70       3.91
H      27.21      23.66       1.52
H      26.59      27.88       3.82
H      26.60      27.83       1.43
H      24.23      25.66       0.79
H      22.49      25.60      67.67
H      26.12      25.67      65.80
H      27.76      25.65      64.14
H      29.62      25.75       0.80
H      31.47      25.65      67.66
H      32.09      23.49      64.78
H       0.14      23.46      64.75
H      32.13      27.70      65.10
H       0.19      27.68      65.04
H      31.39      25.56      62.27
H      29.59      25.56      60.49
H      22.41      25.68      62.29
H      24.20      25.68      60.48
H      27.23      27.72      59.82
H      27.19      27.74      57.43
H      26.57      23.55      59.80
H      26.54      23.56      57.41
H      25.09      24.44      55.54
H      25.00      24.48      53.15
H      28.41      26.96      53.05
H      28.52      26.91      55.44
H      21.75      23.55      65.13
H      19.36      23.57      65.08
H      17.50      27.11      63.33
H      15.11      27.15      63.29
H      15.01      24.29      66.39
H      17.39      24.27      66.46
H      19.40      27.78      64.81
H      21.79      27.76      64.84
H       2.14      26.97      66.43
H       4.52      26.94      66.40
H       2.08      24.11      63.32
H       4.47      24.07      63.32
H      28.10      27.61      42.54
H      28.06      27.68      40.15
H      25.56      24.25      42.49
H      25.53      24.29      40.11
H      24.67      25.73      38.22
H      24.65      25.73      35.83
H      28.86      26.32      38.17
H      28.82      26.34      35.78
H      26.67      28.72      35.12
H      26.67      30.52      33.34
H      26.73      26.89      31.47
H      26.72      25.25      29.81
H      26.75      23.33      35.13
H      26.72      21.54      33.32
H      24.56      20.92      30.45
H      24.54      18.53      30.41
H      28.77      20.88      30.76
H      28.76      18.49      30.70
H      26.63      21.62      27.94
H      26.64      23.42      26.16
H      26.76      30.59      27.95
H      26.77      28.81      26.15
H      28.82      25.76      25.51
H      28.86      25.72      23.12
H      24.66      26.44      25.43
H      24.69      26.39      23.04
H      25.59      27.71      21.06
H      25.60      27.59      18.68
H      28.04      24.16      18.86
H      28.01      24.26      21.25
H      24.62      31.26      30.80
H      24.64      33.65      30.75
H      28.19       1.18      29.00
H      28.23       3.57      28.96
H      25.38       3.67      32.06
H      25.35       1.29      32.13
H      28.86      33.61      30.48
H      28.83      31.22      30.50
H      28.05      16.54      32.09
H      28.03      14.16      32.07
H      25.19      16.60      28.98
H      25.15      14.21      28.98
H      28.68      24.27      12.71
H      25.36      27.46      14.19
H      25.60      27.01      11.87
H      29.51      23.86      14.83
H      28.20      23.80      15.99
H      29.31      25.19      15.97
H      27.95      24.54      10.46
H      26.43      27.46      16.40
H      25.11      24.07      46.98
H      28.35      27.29      48.57
H      27.93      27.10      46.24
H      24.64      23.22      49.07
H      24.60      24.51      50.27
H      25.96      23.35      50.23
H      25.44      24.83      44.75
H      28.28      26.23      50.76
H       8.92      28.07      65.06
H      10.56      23.52      65.10
H       8.22      23.92      64.99
H      11.03      29.02      65.27
H      12.22      28.13      64.33
H      12.19      28.00      66.11
H       6.68      27.24      65.28
H      12.71      24.49      65.99
H      29.16       9.76      30.72
H      24.60       8.12      30.77
H      25.01      10.45      30.66
H      30.11       7.65      30.94
H      29.21       6.46      30.00
H      29.09       6.49      31.78
H      28.33      12.00      30.94
H      25.58       5.96      31.66
H      18.20      19.17       5.16
H      18.19      19.11       2.77
H      21.56      16.63       5.21
H      21.57      16.58       2.83
H      20.18      15.70       0.91
H      20.27      15.60      67.18
H      19.59      19.89       0.82
H      19.66      19.77      67.09
H      17.29      17.61      66.45
H      15.48      17.61      64.67
H      19.11      17.67      62.80
H      20.76      17.65      61.14
H      22.68      17.69      66.46
H      24.46      17.66      64.66
H      25.08      15.49      61.78
H      27.47      15.47      61.75
H      25.13      19.70      62.10
H      27.52      19.68      62.04
H      24.39      17.56      59.27
H      22.59      17.56      57.49
H      15.41      17.68      59.29
H      17.20      17.68      57.48
H      20.22      19.72      56.82
H      20.18      19.74      54.43
H      19.57      15.55      56.80
H      19.54      15.56      54.41
H      18.09      16.45      52.54
H      18.00      16.48      50.15
H      21.41      18.96      50.05
H      21.52      18.91      52.44
H      14.75      15.55      62.13
H      12.36      15.57      62.08
H      10.49      19.12      60.33
H       8.11      19.15      60.29
H       8.01      16.30      63.39
H      10.39      16.28      63.46
H      12.40      19.79      61.81
H      14.79      19.76      61.84
H      29.47      18.97      63.43
H      31.85      18.95      63.40
H      29.41      16.12      60.32
H      31.80      16.07      60.32
H      21.10      19.62      39.54
H      21.06      19.68      37.15
H      18.56      16.25      39.49
H      18.53      16.30      37.11
H      17.67      17.73      35.22
H      17.64      17.73      32.83
H      21.85      18.32      35.17
H      21.82      18.34      32.78
H      19.67      20.72      32.12
H      19.67      22.53      30.34
H      19.73      18.90      28.47
H      19.72      17.25      26.81
H      19.75      15.33      32.13
H      19.72      13.55      30.32
H      17.56      12.92      27.45
H      17.54      10.53      27.41
H      21.77      12.88      27.76
H      21.75      10.49      27.70
H      19.63      13.62      24.94
H      19.64      15.42      23.16
H      19.75      22.60      24.95
H      19.76      20.81      23.15
H      21.82      17.76      22.51
H      21.86      17.73      20.12
H      17.65      18.44      22.43
H      17.69      18.40      20.04
H      18.59      19.72      18.06
H      18.60      19.60      15.68
H      21.04      16.16      15.86
H      21.01      16.26      18.25
H      17.62      23.26      27.80
H      17.64      25.65      27.75
H      21.19      27.52      26.00
H      21.23      29.90      25.96
H      18.37      30.00      29.06
H      18.35      27.62      29.13
H      21.86      25.61      27.48
H      21.83      23.22      27.50
H      21.05       8.54      29.09
H      21.02       6.16      29.07
H      18.19       8.60      25.98
H      18.15       6.21      25.98
H      21.68      16.27       9.71
H      18.35      19.46      11.19
H      18.60      19.01       8.87
H      22.51      15.87      11.83
H      21.20      15.80      12.99
H      22.31      17.19      12.97
H      20.94      16.54       7.46
H      19.42      19.46      13.40
H      18.10      16.08      43.98
H      21.35      19.30      45.57
H      20.93      19.10      43.24
H      17.64      15.22      46.07
H      17.60      16.51      47.27
H      18.95      15.35      47.23
H      18.44      16.83      41.75
H      21.28      18.23      47.76
H       1.92      20.07      62.06
H       3.56      15.52      62.10
H       1.22      15.93      61.99
H       4.03      21.03      62.27
H       5.22      20.13      61.33
H       5.19      20.01      63.11
H      34.01      19.24      62.28
H       5.71      16.50      62.99
H      22.15       1.76      27.72
H      17.60       0.12      27.77
H      18.00       2.45      27.66
H      23.11      33.98      27.94
H      22.21      32.79      27.00
H      22.09      32.82      28.78
H      21.32       4.00      27.94
H      18.58      32.30      28.66
C      31.42      33.67       2.79
C      30.43      33.67       1.82
C      31.05      33.68       0.57
C      32.66      33.69       2.16
C      33.92      33.71       2.83
C       0.85      33.70       2.17
C       2.43      33.68       0.58
C       3.07      33.71       1.82
C       2.10      33.72       2.80
C       3.13      33.61      67.97
C       2.44      33.60      66.72
C       0.83      33.61      65.13
C       2.08      33.58      64.50
C       3.06      33.57      65.47
C      33.91      33.62      64.46
C      32.64      33.63      65.11
C      31.06      33.64      66.71
C      30.42      33.66      65.47
C      31.39      33.66      64.49
C      30.43      33.64      67.98
C      29.00      33.65      67.99
C      28.29       0.54      67.90
C      26.88       0.55      67.87
C      26.13      33.68      67.94
C      26.86      32.46      68.05
C      28.26      32.45      68.07
C      24.70      33.68      67.90
C      23.87      32.93       0.11
C      22.46      32.94       0.07
C      21.82      33.71      67.82
C      22.58       0.19      66.96
C      23.99       0.18      66.99
C      33.91      33.63      63.03
C      34.09       0.50      62.32
C      34.08       0.51      60.91
C      33.87      33.65      60.17
C      33.68      32.44      60.90
C      33.71      32.43      62.30
C      33.82      33.66      58.74
C       0.43       0.06      57.97
C       0.38       0.08      56.56
C      33.70      33.71      55.87
C      32.75      32.99      56.62
C      32.81      32.96      58.03
C       4.56      33.59      67.95
C       5.26      32.38      67.83
C       6.67      32.36      67.80
C       7.42      33.57      67.89
C       6.70       0.45      68.00
C       5.29       0.46      68.03
C       8.86      33.55      67.87
C       9.55       0.10       0.08
C      10.96       0.08       0.07
C      11.73      33.53      67.83
C      10.99      32.69      66.97
C       9.58      32.71      66.98
C      33.91      33.74       4.25
C      34.08      32.55       5.00
C      33.73       0.62       4.95
C      33.71       0.65       6.36
C      33.89      33.80       7.12
C      34.08      32.58       6.41
C      33.88      33.83       8.55
C       0.51      33.11       9.30
C       0.51      33.14      10.71
C      33.87      33.89      11.42
C      32.92       0.28      10.68
C      32.92       0.25       9.27
C      33.68       2.20      37.12
C      33.69       3.18      36.15
C      33.70       2.57      34.89
C      33.70       0.96      36.48
C      33.72      34.03      37.15
C      33.71      32.77      36.50
C      33.70      31.19      34.90
C      33.72      30.55      36.14
C      33.73      31.52      37.13
C      33.68      30.55      33.63
C      33.67      31.24      32.39
C      33.69      32.85      30.80
C      33.66      31.60      30.16
C      33.65      30.62      31.13
C      33.71      34.10      30.13
C      33.72       1.04      30.78
C      33.72       2.61      32.37
C      33.74       3.25      31.13
C      33.75       2.28      30.15
C      33.71       3.25      33.64
C      33.73       4.68      33.66
C       0.62       5.39      33.56
C       0.63       6.80      33.54
C      33.76       7.55      33.61
C      32.54       6.82      33.72
C      32.53       5.41      33.74
C      33.77       8.98      33.57
C      32.95       9.75      34.44
C      32.97      11.16      34.40
C      33.80      11.85      33.49
C       0.28      11.09      32.63
C       0.27       9.69      32.66
C      33.74      34.10      28.70
C       0.61      33.89      28.00
C       0.64      33.87      26.59
C      33.78      34.05      25.83
C      32.58      34.27      26.54
C      32.55      34.29      27.95
C      33.80      34.00      24.40
C       0.18      32.98      23.72
C       0.19      32.91      22.32
C      33.84      33.87      21.54
C      33.13       0.56      22.21
C      33.11       0.62      23.62
C      33.67      29.12      33.61
C      32.45      28.41      33.50
C      32.45      27.00      33.47
C      33.65      26.25      33.55
C       0.53      26.98      33.67
C       0.54      28.39      33.69
C      33.64      24.82      33.53
C       0.13      24.07      34.41
C       0.11      22.66      34.40
C      33.61      21.95      33.50
C      32.78      22.69      32.64
C      32.80      24.10      32.65
C      33.73      34.03      38.58
C      32.54      33.85      39.32
C       0.61      34.21      39.29
C       0.63      34.21      40.70
C      33.77      34.02      41.44
C      32.56      33.84      40.72
C      33.79      33.99      42.88
C      33.06      33.02      43.60
C      33.08      32.98      45.01
C      33.82      33.94      45.75
C       0.22       0.58      45.03
C       0.21       0.60      43.62
C      34.18      33.59      15.06
C       0.64      32.93      16.03
C       0.52      33.19      17.42
C      33.87      34.12      17.88
C      33.07       0.44      16.91
C      33.21       0.17      15.53
C       1.44      32.47      18.35
C       0.03      33.30      13.71
C      33.70       0.18      19.22
C      33.48      33.56      49.38
C      32.79      32.75      50.32
C      33.02      32.85      51.72
C      33.98      33.80      52.21
C       0.32       0.27      51.26
C       0.08       0.16      49.88
C      32.26      31.93      52.62
C      33.21      33.40      48.02
C      34.35      33.93      53.55
C      15.34      34.04      68.00
C      16.28       0.77      68.05
C      17.68       0.56      68.11
C      18.18      33.55      68.13
C      17.24      32.49      68.06
C      15.86      32.73      68.00
C      18.58       1.74      68.21
C      13.97      -0.02      68.05
C      19.52      33.22      68.34
C      34.13      18.33      33.67
C       0.86      17.40      33.71
C       0.65      16.00      33.78
C      33.64      15.50      33.80
C      32.58      16.43      33.73
C      32.82      17.82      33.67
C       1.83      15.10      33.88
C       0.07      19.70      33.71
C      33.31      14.16      34.01
C      24.47      25.61      68.45
C      23.49      25.61      67.48
C      24.11      25.63      66.23
C      25.72      25.64      67.82
C      26.98      25.65      68.49
C      28.24      25.65      67.83
C      29.82      25.63      66.24
C      30.46      25.65      67.48
C      29.49      25.67      68.46
C      30.46      25.61      64.97
C      29.77      25.60      63.72
C      28.16      25.61      62.13
C      29.41      25.58      61.50
C      30.39      25.58      62.47
C      26.90      25.62      61.46
C      25.64      25.64      62.11
C      24.06      25.65      63.71
C      23.42      25.66      62.47
C      24.39      25.66      61.49
C      23.42      25.64      64.98
C      21.99      25.65      64.99
C      21.28      26.87      64.90
C      19.88      26.88      64.87
C      19.13      25.68      64.94
C      19.85      24.46      65.05
C      21.26      24.45      65.07
C      17.69      25.69      64.90
C      16.93      24.87      65.77
C      15.52      24.88      65.73
C      14.82      25.71      64.82
C      15.58      26.53      63.96
C      16.99      26.52      63.99
C      26.91      25.63      60.03
C      27.09      26.83      59.32
C      27.07      26.84      57.91
C      26.86      25.65      57.17
C      26.68      24.45      57.90
C      26.71      24.43      59.30
C      26.82      25.67      55.74
C      27.76      26.39      54.97
C      27.71      26.41      53.56
C      26.70      25.71      52.87
C      25.75      24.99      53.62
C      25.81      24.96      55.03
C      31.89      25.59      64.95
C      32.59      24.38      64.83
C      34.00      24.37      64.80
C       0.42      25.57      64.89
C      34.03      26.78      65.00
C      32.62      26.80      65.03
C       1.85      25.56      64.87
C       2.61      26.37      65.74
C       4.02      26.36      65.73
C       4.73      25.53      64.83
C       3.98      24.69      63.97
C       2.57      24.71      63.98
C      26.91      25.74       1.25
C      27.08      24.55       2.00
C      26.73      26.95       1.95
C      26.71      26.98       3.36
C      26.88      25.80       4.12
C      27.07      24.58       3.41
C      26.88      25.83       5.55
C      27.84      25.11       6.30
C      27.84      25.14       7.71
C      26.87      25.89       8.42
C      25.92      26.61       7.68
C      25.92      26.59       6.27
C      26.68      28.54      34.12
C      26.68      29.52      33.15
C      26.70      28.90      31.89
C      26.70      27.29      33.48
C      26.71      26.03      34.15
C      26.71      24.77      33.50
C      26.70      23.19      31.90
C      26.72      22.55      33.14
C      26.73      23.52      34.13
C      26.68      22.55      30.63
C      26.67      23.24      29.39
C      26.69      24.85      27.80
C      26.66      23.60      27.16
C      26.65      22.62      28.13
C      26.71      26.11      27.13
C      26.71      27.37      27.78
C      26.72      28.95      29.37
C      26.74      29.59      28.13
C      26.74      28.62      27.15
C      26.71      29.59      30.64
C      26.73      31.02      30.66
C      27.94      31.72      30.56
C      27.96      33.13      30.54
C      26.75      33.88      30.61
C      25.54      33.16      30.72
C      25.52      31.75      30.74
C      26.77       0.98      30.57
C      25.95       1.75      31.44
C      25.97       3.16      31.40
C      26.80       3.86      30.49
C      27.61       3.10      29.63
C      27.60       1.69      29.66
C      26.73      26.10      25.70
C      27.94      25.90      25.00
C      27.97      25.87      23.59
C      26.78      26.06      22.83
C      25.57      26.28      23.54
C      25.55      26.29      24.95
C      26.80      26.00      21.40
C      27.51      24.98      20.72
C      27.52      24.91      19.32
C      26.83      25.87      18.54
C      26.12      26.89      19.21
C      26.10      26.95      20.62
C      26.67      21.12      30.61
C      25.45      20.41      30.50
C      25.44      19.00      30.47
C      26.65      18.26      30.55
C      27.86      18.98      30.67
C      27.87      20.39      30.69
C      26.63      16.82      30.53
C      27.46      16.07      31.41
C      27.44      14.66      31.40
C      26.61      13.95      30.50
C      25.78      14.69      29.64
C      25.79      16.10      29.65
C      26.73      26.04      35.58
C      25.54      25.86      36.32
C      27.94      26.21      36.29
C      27.96      26.21      37.70
C      26.77      26.02      38.44
C      25.56      25.84      37.72
C      26.79      26.00      39.88
C      26.06      25.02      40.60
C      26.08      24.99      42.01
C      26.82      25.94      42.75
C      27.55      26.91      42.03
C      27.54      26.94      40.62
C      27.17      25.59      12.06
C      27.97      24.94      13.03
C      27.85      25.19      14.42
C      26.87      26.13      14.88
C      26.06      26.77      13.91
C      26.21      26.51      12.53
C      28.77      24.47      15.35
C      27.36      25.31      10.71
C      26.70      26.52      16.22
C      26.47      25.56      46.38
C      25.79      24.76      47.32
C      26.02      24.85      48.72
C      26.97      25.80      49.21
C      27.65      26.61      48.26
C      27.41      26.49      46.88
C      25.26      23.93      49.62
C      26.21      25.40      45.02
C      27.35      25.94      50.55
C       8.34      26.04      65.00
C       9.28      27.11      65.05
C      10.68      26.89      65.11
C      11.17      25.56      65.13
C      10.24      24.49      65.06
C       8.86      24.73      65.00
C      11.57      28.08      65.21
C       6.97      26.32      65.05
C      12.51      25.22      65.34
C      27.13      10.33      30.67
C      28.19       9.40      30.71
C      27.98       8.00      30.78
C      26.64       7.50      30.80
C      25.58       8.44      30.73
C      25.81       9.82      30.67
C      29.16       7.10      30.88
C      27.40      11.71      30.71
C      26.31       6.16      31.01
C      17.47      17.62      65.45
C      16.49      17.62      64.48
C      17.11      17.63      63.23
C      18.72      17.64      64.82
C      19.97      17.65      65.49
C      21.24      17.65      64.83
C      22.82      17.63      63.24
C      23.46      17.65      64.48
C      22.49      17.67      65.46
C      23.45      17.61      61.97
C      22.77      17.60      60.72
C      21.16      17.61      59.13
C      22.40      17.58      58.50
C      23.39      17.58      59.47
C      19.90      17.63      58.46
C      18.64      17.64      59.11
C      17.06      17.65      60.71
C      16.42      17.67      59.47
C      17.39      17.67      58.49
C      16.42      17.64      61.98
C      14.99      17.66      61.99
C      14.28      18.87      61.90
C      12.87      18.88      61.87
C      12.13      17.68      61.94
C      12.85      16.47      62.05
C      14.26      16.45      62.07
C      10.69      17.69      61.90
C       9.92      16.87      62.77
C       8.52      16.89      62.73
C       7.82      17.71      61.82
C       8.58      18.53      60.96
C       9.99      18.52      60.99
C      19.90      17.63      57.03
C      20.09      18.84      56.32
C      20.07      18.84      54.91
C      19.86      17.65      54.17
C      19.68      16.45      54.90
C      19.70      16.44      56.30
C      19.82      17.67      52.74
C      20.76      18.40      51.97
C      20.71      18.42      50.56
C      19.70      17.71      49.87
C      18.75      16.99      50.62
C      18.81      16.97      52.03
C      24.88      17.60      61.95
C      25.59      16.38      61.83
C      27.00      16.37      61.80
C      27.75      17.57      61.89
C      27.03      18.79      62.00
C      25.62      18.80      62.03
C      29.18      17.56      61.87
C      29.94      18.38      62.74
C      31.35      18.36      62.73
C      32.06      17.53      61.83
C      31.31      16.70      60.97
C      29.90      16.72      60.98
C      19.97      17.68      66.91
C      20.14      16.50      67.66
C      19.78      18.90      67.61
C      19.71      18.98       0.36
C      19.88      17.80       1.12
C      20.07      16.59       0.41
C      19.87      17.83       2.55
C      20.83      17.11       3.30
C      20.83      17.14       4.71
C      19.87      17.89       5.42
C      18.91      18.62       4.68
C      18.92      18.59       3.27
C      19.68      20.54      31.12
C      19.68      21.52      30.15
C      19.70      20.90      28.89
C      19.70      19.29      30.48
C      19.71      18.04      31.15
C      19.71      16.77      30.50
C      19.69      15.19      28.90
C      19.71      14.55      30.14
C      19.73      15.52      31.13
C      19.68      14.56      27.63
C      19.67      15.24      26.39
C      19.69      16.85      24.80
C      19.65      15.61      24.16
C      19.65      14.62      25.13
C      19.71      18.11      24.13
C      19.71      19.37      24.78
C      19.72      20.95      26.37
C      19.74      21.59      25.13
C      19.74      20.62      24.15
C      19.71      21.59      27.64
C      19.72      23.02      27.66
C      20.94      23.73      27.56
C      20.95      25.13      27.54
C      19.75      25.88      27.61
C      18.54      25.16      27.72
C      18.52      23.75      27.74
C      19.76      27.32      27.57
C      18.95      28.09      28.44
C      18.96      29.49      28.40
C      19.79      30.19      27.49
C      20.61      29.43      26.63
C      20.59      28.02      26.66
C      19.73      18.11      22.70
C      20.94      17.90      22.00
C      20.96      17.87      20.59
C      19.78      18.06      19.83
C      18.57      18.28      20.54
C      18.55      18.30      21.95
C      19.80      18.00      18.40
C      20.51      16.98      17.72
C      20.52      16.91      16.32
C      19.83      17.87      15.54
C      19.12      18.89      16.21
C      19.10      18.95      17.62
C      19.66      13.13      27.61
C      18.45      12.42      27.50
C      18.44      11.01      27.47
C      19.64      10.26      27.55
C      20.86      10.99      27.67
C      20.87      12.39      27.69
C      19.63       8.82      27.53
C      20.45       8.07      28.41
C      20.44       6.66      28.40
C      19.61       5.95      27.50
C      18.77       6.69      26.64
C      18.79       8.10      26.65
C      19.73      18.04      32.58
C      18.54      17.86      33.32
C      20.94      18.22      33.29
C      20.95      18.21      34.70
C      19.76      18.02      35.44
C      18.56      17.85      34.72
C      19.78      18.00      36.88
C      19.06      17.02      37.60
C      19.08      16.99      39.01
C      19.82      17.94      39.75
C      20.55      18.91      39.03
C      20.53      18.94      37.62
C      20.17      17.59       9.06
C      20.97      16.94      10.03
C      20.85      17.19      11.42
C      19.87      18.13      11.88
C      19.06      18.77      10.91
C      19.21      18.51       9.53
C      21.77      16.47      12.35
C      20.36      17.31       7.71
C      19.70      18.52      13.22
C      19.47      17.56      43.38
C      18.79      16.76      44.32
C      19.02      16.85      45.72
C      19.97      17.80      46.21
C      20.65      18.61      45.26
C      20.40      18.50      43.88
C      18.26      15.93      46.62
C      19.21      17.41      42.02
C      20.35      17.94      47.55
C       1.34      18.05      62.00
C       2.27      19.11      62.05
C       3.67      18.90      62.11
C       4.17      17.56      62.13
C       3.24      16.49      62.06
C       1.85      16.73      62.00
C       4.57      20.08      62.21
C      34.30      18.32      62.05
C       5.51      17.23      62.34
C      20.13       2.34      27.67
C      21.19       1.40      27.71
C      20.98       0.00      27.78
C      19.64      33.84      27.80
C      18.57       0.44      27.73
C      18.81       1.82      27.67
C      22.16      33.44      27.88
C      20.40       3.71      27.71
C      19.31      32.50      28.01
N      32.38      33.69       0.83
N       1.10      33.68       0.84
N       1.11      33.62      66.46
N      32.39      33.62      66.44
N      20.49      33.82      67.76
N      33.81      33.98      12.76
N      13.06      33.44      67.80
N      33.57      33.68      54.54
N      33.71       1.23      35.15
N      33.70      32.51      35.17
N      33.69      32.57      32.13
N      33.70       1.29      32.11
N      33.91      13.18      33.43
N      33.90      33.97      47.08
N      33.53      20.61      33.47
N      33.91      33.73      20.21
N      25.44      25.64      66.49
N      28.49      25.63      66.51
N      28.44      25.62      63.46
N      25.39      25.63      63.44
N      13.49      25.82      64.76
N      26.81      25.98       9.76
N       6.06      25.44      64.80
N      26.57      25.68      51.54
N      26.71      27.57      32.15
N      26.69      24.52      32.17
N      26.69      24.57      29.13
N      26.70      27.62      29.11
N      26.91       5.19      30.43
N      26.90      25.97      44.08
N      26.52      12.62      30.47
N      26.90      25.73      17.21
N      18.44      17.64      63.49
N      21.49      17.63      63.51
N      21.43      17.62      60.46
N      18.38      17.63      60.44
N       6.49      17.82      61.76
N      19.81      17.98       6.76
N      33.39      17.44      61.80
N      19.57      17.68      48.54
N      19.70      19.57      29.15
N      19.69      16.52      29.17
N      19.69      16.57      26.13
N      19.70      19.62      26.11
N      19.90      31.52      27.43
N      19.90      17.97      41.08
N      19.52       4.62      27.47
N      19.90      17.73      14.21
