36

Mn      12.71      18.51      10.50
Mn       9.23      15.13      15.75
Mn      11.66      16.13      13.13
Mn      13.77      20.92       7.88
C      13.41      15.54      10.53
C      15.53      23.30       7.95
C      12.20      14.37      15.72
C      11.32      19.23       7.81
C      12.03      21.50      10.47
C       9.90      13.73      13.07
C      13.23      22.68       5.28
C      14.09      17.82      13.20
N       9.76      17.86      11.34
N       9.98      18.07      14.91
N      15.67      19.18       9.66
N      15.44      18.97       6.09
O      13.04      15.43      11.74
O      13.33      16.61       9.82
O      15.25      22.20       8.56
O       9.12      16.59      17.30
O      11.03      17.61      11.67
O      12.33      14.73      14.50
O      11.14      14.49      16.43
O      12.43      19.47       7.21
O      11.23      18.72       8.98
O      10.19      16.80      14.59
O      12.39      21.62       9.25
O      12.12      20.44      11.18
O      10.18      14.83      12.46
O       9.40      13.65      14.23
O      14.40      19.42       9.34
O      13.11      22.32       6.49
O       7.34      15.80      15.07
O      12.99      17.57      13.81
O      14.17      18.36      12.05
O      15.23      20.24       6.42
