38

O      11.46       5.72       4.34
H      12.93       7.40       3.05
H      13.50       8.63       0.97
O       9.29       6.22       4.08
H       8.82       7.17       1.83
H       9.37       8.34      -0.29
H      13.92       8.63      -1.08
H      14.47       9.53      -3.28
H       9.82       9.91      -1.55
H      10.34      10.75      -3.79
H      11.24      12.24      -5.12
H      13.29      11.63      -8.83
O      11.64      13.53      -8.82
O      14.67       9.51      -9.29
O      15.95       9.13      -7.49
H      14.35       9.24      -5.42
O      10.53      13.71      -6.86
C      10.52       6.32       3.72
C      10.85       7.18       2.54
C      12.16       7.61       2.31
C      12.48       8.30       1.14
C      11.49       8.56       0.16
C      10.16       8.17       0.44
C       9.84       7.50       1.62
C      11.82       9.18      -1.13
C      13.14       9.12      -1.65
C      13.44       9.61      -2.91
C      12.44      10.21      -3.72
C      11.14      10.31      -3.19
C      10.84       9.81      -1.92
C      12.73      10.66      -5.09
C      13.73      10.02      -5.85
C      13.91      10.36      -7.20
C      13.14      11.37      -7.79
C      12.19      12.05      -7.02
C      11.98      11.68      -5.69
C      14.90       9.63      -8.05
C      11.39      13.17      -7.62
