38

C       8.76       1.89       9.29
C       8.98       1.52      10.62
C       6.04      -0.49       8.27
C       9.55       3.01       8.69
O       9.66      -4.39      20.64
O      11.82      -3.87      20.34
O      10.40       3.58       9.45
O       9.32       3.34       7.48
O       6.27      -0.57       7.02
O       4.98      -1.00       8.80
H       8.14      -2.74      19.35
H       7.54      -1.51      17.28
H      11.64      -1.77      15.97
H      12.23      -2.95      18.09
H       7.11      -1.53      15.25
H       6.52      -0.66      13.04
H      10.62       0.59      12.47
H      11.19      -0.23      14.71
H       6.61      -0.93      10.89
H       7.63       1.48       7.49
H       9.73       2.07      11.19
C      10.58      -3.79      20.00
C      10.22      -2.95      18.82
C       8.90      -2.52      18.60
C       8.56      -1.84      17.43
C       9.54      -1.57      16.45
C      10.88      -1.95      16.72
C      11.21      -2.63      17.88
C       9.19      -0.95      15.16
C       7.87      -1.03      14.66
C       7.54      -0.55      13.40
C       8.53       0.04      12.58
C       9.84       0.15      13.09
C      10.17      -0.33      14.35
C       8.23       0.49      11.22
C       7.22      -0.14      10.46
C       7.03       0.22       9.13
C       7.80       1.22       8.53
