20

Ba      10.96       3.48      12.35
Ba      11.08      -3.33       8.51
C      12.96      -0.62       7.93
Cd       9.81       0.01       9.90
C       7.74      -1.84       8.43
Cd      12.23       0.14      10.96
O       9.48       2.05       8.75
O      10.92       3.38       9.87
O      10.25       1.23      13.24
O      14.18       0.89      11.78
O      13.37       2.85      12.59
O      12.56      -1.90      12.11
O      11.12      -3.23      10.99
C      10.39       2.94       8.78
O      11.78      -1.08       7.62
O       7.85      -0.74       9.08
O       8.67      -2.70       8.27
C       9.08       0.78      12.93
C      14.30       1.99      12.43
C      11.64      -2.78      12.08
