25

C      12.01       2.83      15.84
C      10.85       3.50      15.46
C       8.67       4.74      15.43
C       9.24       4.57      14.16
C      10.45       3.88      14.17
C       7.47       5.41      15.81
C       7.02       5.71      17.10
C       5.81       6.41      17.13
C       5.28       6.68      15.87
C       4.08       7.37      15.55
C       1.94       8.67      15.66
C       2.30       8.33      14.35
C       3.49       7.60      14.29
C       0.79       9.34      16.07
H       8.77       4.96      13.26
H      11.03       3.64      13.28
H       7.59       5.45      17.99
H       5.31       6.71      18.05
H       1.71       8.60      13.49
H       3.93       7.24      13.37
S       9.67       4.00      16.65
S       6.34       6.02      14.62
S       3.12       8.10      16.81
N      12.98       2.28      16.19
N      -0.20       9.88      16.41
