25

N       9.53       0.46      14.83
N      22.62      -0.85       7.20
C      10.47       0.02      14.29
C      11.58      -0.50      13.63
C      11.83      -1.83      13.28
C      13.03      -2.00      12.59
C      13.74      -0.80      12.39
C      14.97      -0.58      11.70
C      17.16      -0.80      10.46
C      16.80       0.52      10.75
C      15.59       0.64      11.44
C      18.33      -1.26       9.78
C      18.83      -2.56       9.67
C      20.02      -2.65       8.93
C      20.45      -1.40       8.46
C      21.62      -1.11       7.76
H      11.14      -2.64      13.53
H      13.38      -2.96      12.22
H      17.45       1.36      10.50
H      15.17       1.59      11.75
H      18.35      -3.41      10.14
H      20.55      -3.57       8.72
S      12.88       0.53      13.11
S      15.92      -1.89      11.04
S      19.34      -0.13       8.92
