25

N       6.36      19.69       5.19
N      19.54      12.08       5.41
H      10.57      17.00       2.25
C       8.49      18.46       4.45
C      10.67      17.22       4.42
C      10.11      17.39       3.15
C       8.89      18.09       3.16
C      11.87      16.55       4.80
C      12.32      16.25       6.09
C       7.34      19.14       4.84
H       8.31      18.33       2.28
C      14.06      15.29       4.86
C      13.53      15.56       6.12
C      15.26      14.59       4.54
H      11.75      16.52       6.98
C      15.85      14.36       3.28
C      17.05      13.64       3.35
C      17.41      13.30       4.65
C      18.56      12.63       5.06
H      14.04      15.26       7.04
H      17.64      13.36       2.48
H      15.41      14.72       2.36
S       9.67      17.97       5.64
S      13.01      15.94       3.61
S      16.22      13.87       5.80
