25

N       6.53       8.71       5.82
N      -6.64       1.10       5.60
H       2.32       6.02       8.76
H       4.59       7.34       8.73
H       1.14       5.54       4.03
H      -1.14       4.27       3.97
H      -4.74       2.38       8.53
H      -2.52       3.74       8.65
C       5.56       8.16       6.17
C       4.40       7.48       6.56
C       2.22       6.24       6.58
C       2.79       6.41       7.86
C       4.01       7.11       7.85
C       1.02       5.57       6.21
C       0.57       5.27       4.92
C      -0.64       4.58       4.89
C      -1.17       4.30       6.15
C      -2.37       3.61       6.47
C      -4.51       2.31       6.35
C      -4.15       2.66       7.66
C      -2.96       3.38       7.72
C      -5.66       1.64       5.95
S       3.22       6.99       5.37
S      -0.11       4.96       7.39
S      -3.33       2.88       5.21
