25

C       4.03       0.02      18.74
C       5.14      -0.50      19.40
C       5.38      -1.83      19.75
C       6.58      -2.00      20.44
C       7.29      -0.80      20.64
C       8.52      -0.58      21.32
C      10.71      -0.80      22.57
C      10.36       0.52      22.28
H       4.70      -2.64      19.50
C      11.88      -1.26      23.24
C      12.39      -2.56      23.35
C       9.15       0.64      21.59
C      14.00      -1.40      24.56
C      15.17      -1.11      25.27
H       6.94      -2.96      20.81
H      11.00       1.36      22.52
H       8.72       1.59      21.28
C      13.57      -2.65      24.10
H      14.11      -3.57      24.30
H      11.90      -3.41      22.88
S       6.44       0.53      19.92
S       9.47      -1.89      21.99
S      12.89      -0.13      24.10
N       3.08       0.46      18.20
N      16.17      -0.85      25.83
