25

N       3.37      21.51       7.19
N      -9.72      22.82      14.82
H       1.75      24.60       8.49
H      -0.49      24.92       9.80
H      -4.55      20.60      11.51
H      -2.27      20.37      10.27
H      -5.45      25.38      11.88
H      -7.65      25.53      13.30
C       2.43      21.95       7.73
C       1.32      22.47       8.39
C       1.07      23.80       8.74
C      -0.13      23.96       9.43
C      -0.84      22.77       9.63
C      -2.07      22.54      10.31
C      -4.26      22.76      11.56
C      -3.91      21.44      11.27
C      -2.69      21.32      10.58
C      -5.43      23.22      12.23
C      -5.94      24.53      12.35
C      -7.12      24.61      13.09
C      -7.55      23.36      13.56
C      -8.72      23.07      14.26
S       0.01      21.43       8.91
S      -3.02      23.86      10.98
S      -6.44      22.10      13.10
