25

N       0.09       8.70       5.18
N      -0.20       1.10       5.40
H      -4.12       6.02       2.25
H      -1.86       7.34       2.28
H      -5.30       5.54       6.98
H      -7.59       4.27       7.04
H     -11.19       2.38       2.48
H      -8.97       3.74       2.36
C      -0.89       8.16       4.84
C      -2.05       7.48       4.45
C      -4.22       6.24       4.42
C      -3.66       6.41       3.15
C      -2.44       7.11       3.16
C      -5.42       5.57       4.80
C      -5.87       5.27       6.09
C      -7.08       4.58       6.12
S      -3.22       6.99       5.64
S      -6.56       4.96       3.61
C      -8.81       3.61       4.54
C      -7.61       4.30       4.86
C      -9.41       3.38       3.28
S      -9.77       2.88       5.80
C     -10.60       2.66       3.34
C     -10.96       2.31       4.65
C     -12.11       1.64       5.06
