25

H      11.53       1.82       6.12
H      15.62       1.92       3.41
H      15.80       1.93       5.74
H       8.36       0.60       2.53
H       8.43       2.11       1.45
H       8.89       0.54       0.84
H      10.84       2.18       1.56
H      10.71       0.42       1.98
H      10.27       0.75       4.26
H      10.27       2.43       4.07
C      13.83       2.37       7.46
C      12.41       1.76       5.50
C      12.25       1.60       4.10
C      13.47       1.60       3.31
C      14.69       1.85       3.95
C      14.81       1.86       5.31
C      13.67       1.88       6.10
C      13.67       1.02       1.95
C      10.76       1.54       3.67
C      10.37       1.40       2.19
C       8.92       1.17       1.77
O      15.02       2.63       7.86
O      12.80       2.84       8.04
O      12.68       0.55       1.32
O      14.89       0.78       1.59
