16

C       3.08       1.43      16.84
O       4.22       1.18      17.35
O       1.99       0.96      17.30
O       1.92       2.91      10.86
F       0.65       2.17      15.50
C       4.19       1.76      13.36
C       4.23       1.77      14.73
C       3.05       1.88      15.47
C       1.82       2.05      14.82
H       5.12       1.68      12.82
C       2.96       1.95      12.71
H       0.82       2.20      12.94
C       1.77       2.05      13.44
O       4.14       2.71      10.90
H       5.20       1.62      15.21
C       3.00       2.44      11.36
