16

O       6.75       6.11       1.29
C       5.75       6.80       1.76
C       5.14       5.22       5.11
C       5.23       5.27       3.72
C       5.18       6.51       3.09
C       4.73       7.61       3.83
C       4.73       7.59       5.20
C       5.00       6.39       5.87
H       5.15       4.26       5.61
H       5.32       4.37       3.13
H       4.39       8.48       3.33
H       4.46       8.49       5.74
C       4.76       6.33       7.30
O       5.03       5.23       7.91
O       4.07       7.26       7.80
O       5.43       7.93       1.30
