16

C      10.61       7.01      16.96
O      10.69       8.16      17.53
O       9.80       6.12      17.35
C      11.11       5.37      13.71
C      11.08       5.53      15.07
C      11.19       6.81      15.64
C      11.49       7.91      14.81
C      11.58       7.73      13.42
C      11.34       6.47      12.87
H      10.97       4.37      13.31
H      10.85       4.67      15.69
H      11.57       8.90      15.22
H      11.80       8.58      12.79
C      11.56       6.20      11.45
O      11.14       5.09      10.99
O      12.41       6.92      10.82
