24

H       2.84       7.07       2.64
H       3.63       6.64       4.95
H       5.47       3.01       3.47
H       4.50       3.54       1.25
H       5.79       3.55       5.79
H       6.98       2.28      10.09
H       6.15       2.68       7.79
H       4.31       6.31       9.26
H       5.32       5.81      11.48
H       3.99       5.77       6.95
C       3.39       6.15       2.90
C       3.83       5.91       4.18
C       4.58       4.74       4.45
C       4.84       3.89       3.36
C       4.33       4.19       2.11
C       5.07       4.37       5.78
C       6.42       3.19       9.83
C       5.96       3.43       8.55
C       5.21       4.59       8.28
C       4.95       5.44       9.37
C       5.48       5.16      10.62
C       4.71       4.95       6.95
N       3.60       5.30       1.87
N       6.22       4.06      10.85
