24

H      -4.19       8.04      10.68
H      -3.49       8.50       8.35
H      -6.10      11.94       8.39
H      -6.69      11.36      10.71
H      -4.92      11.54       6.41
H      -3.80      12.56       2.05
H      -4.56      12.06       4.35
H      -1.95       8.61       4.30
H      -1.31       9.23       2.01
H      -3.12       9.01       6.28
C      -4.58       8.90      10.13
C      -4.21       9.16       8.82
C      -4.75      10.27       8.13
C      -5.65      11.07       8.86
C      -5.99      10.74      10.16
C      -4.43      10.63       6.77
C      -3.42      11.69       2.60
C      -3.83      11.41       3.88
C      -3.29      10.29       4.57
C      -2.38       9.49       3.84
C      -2.02       9.85       2.56
C      -3.61       9.93       5.93
N      -5.46       9.68      10.82
N      -2.53      10.92       1.91
