16

Zn       7.16       0.00      14.32
Zn       3.58       3.58      15.47
N       7.16       0.00      16.34
N       3.58      -3.58      13.45
O       4.78       2.58      16.68
C       6.40       0.88      17.00
C       5.59       1.78      16.09
O       9.54      -2.58      16.68
C       7.92      -0.88      17.00
C       8.74      -1.78      16.09
O       5.96      -1.00      13.11
O       8.36       1.00      13.11
C       4.34      -2.70      12.79
C       5.15      -1.80      13.70
C       9.98       2.70      12.79
C       9.17       1.80      13.70
