26

H      13.55       7.02       2.56
H      11.99       5.10       2.64
H       8.73       7.94       2.52
H      10.41       9.74       2.47
H       9.42       4.59       1.66
H       9.55       4.49       3.39
N      12.06       8.47       2.50
N       5.75       1.74       2.54
H       5.88       1.89       0.49
H       6.97       4.14       0.51
H       6.84       3.98       4.82
H       5.71       1.77       4.62
H       7.59       6.07       3.65
H       7.46       6.19       1.89
C      12.47       7.18       2.55
C      11.59       6.11       2.60
C      10.21       6.35       2.57
C       9.79       7.68       2.53
C      10.73       8.70       2.50
C       9.26       5.18       2.58
C       6.10       2.40       1.42
C       6.71       3.65       1.44
C       6.99       4.25       2.67
C       6.63       3.56       3.83
C       6.01       2.32       3.73
C       7.77       5.53       2.71
