33

C      18.75      27.69      25.98
C      19.63      28.83      26.39
C      20.30      29.47      25.16
C      21.10      30.74      25.48
C      22.36      30.50      26.32
C      23.18      31.78      26.54
N      18.18      25.52      25.75
N      19.03      26.46      26.37
H      19.13      21.65      26.01
H      18.15      19.80      24.72
H      16.26      20.26      23.13
H      15.38      22.59      22.91
H      18.99      29.58      26.89
H      20.36      28.49      27.14
H      19.52      29.69      24.43
H      20.97      28.73      24.69
H      20.44      31.47      25.99
H      21.39      31.22      24.54
H      22.07      30.08      27.30
H      22.98      29.74      25.83
H      22.63      32.52      27.14
H      24.13      31.57      27.04
H      23.42      32.27      25.58
O      16.18      24.63      24.14
O      19.60      23.96      26.64
O      17.77      27.94      25.16
C      16.75      23.44      24.31
C      17.86      23.18      25.18
C      18.31      21.85      25.32
C      17.75      20.80      24.61
C      16.69      21.07      23.72
C      16.20      22.36      23.59
C      18.57      24.25      25.90
