33

N      23.10      15.17      17.77
N      23.92      16.09      17.10
H      23.66      14.77      21.69
H      22.26      13.49      23.27
H      20.33      12.14      22.39
H      19.81      12.16      19.95
H      24.56      16.62      13.99
H      25.24      17.48      15.39
H      23.87      18.93      13.80
H      22.44      17.99      14.22
H      24.12      19.61      16.21
H      22.72      18.66      16.64
H      22.73      21.09      14.76
H      21.31      20.09      15.06
H      21.47      20.64      17.55
H      21.24      22.10      16.56
H      22.85      21.70      17.21
O      21.05      13.45      18.16
O      24.34      15.73      19.62
O      22.65      15.42      15.31
C      21.41      13.49      19.44
C      22.52      14.23      19.94
C      22.81      14.20      21.32
C      22.03      13.47      22.21
C      20.94      12.73      21.71
C      20.64      12.73      20.35
C      23.36      15.07      19.09
C      23.61      16.16      15.82
C      24.30      17.14      14.93
C      23.40      18.35      14.61
C      23.16      19.25      15.83
C      22.25      20.45      15.52
C      21.93      21.27      16.77
