33

H      15.62       7.06       2.68
H      16.59       8.91       3.96
H      18.49       8.44       5.55
H      19.37       6.12       5.78
H      15.75      -0.87       1.80
H      14.38       0.21       1.55
H      15.23      -0.99       4.26
H      13.78      -0.02       3.99
H      14.31      -2.76       2.69
N      16.57       3.18       2.93
N      15.72       2.25       2.31
H      13.36      -2.52       4.15
H      12.67      -1.37       1.39
H      11.77      -1.03       2.85
H      12.11      -3.81       1.54
H      10.61      -2.86       1.64
H      11.32      -3.56       3.10
C      17.99       5.27       4.37
C      16.89       5.53       3.50
C      16.43       6.86       3.36
C      17.00       7.91       4.07
C      18.05       7.64       4.96
C      18.55       6.35       5.10
C      16.18       4.46       2.79
C      15.99       1.02       2.71
C      15.12      -0.12       2.29
C      14.44      -0.76       3.52
C      13.65      -2.04       3.20
C      12.39      -1.80       2.36
C      11.57      -3.08       2.15
O      18.56       4.08       4.54
O      15.15       4.75       2.04
O      16.97       0.77       3.52
