33

C       7.91       5.61      14.47
C       7.62       6.99      14.52
C       8.39       7.87      15.26
C       9.48       7.37      15.99
C       9.78       6.01      15.98
C       7.07       4.77      13.62
C       6.80       1.50      12.53
C       6.11       0.61      11.55
C       7.01       0.29      10.34
C       7.25       1.51       9.44
C       8.16       1.19       8.24
C       8.47       2.45       7.41
N       7.32       3.45      13.52
N       6.50       2.78      12.60
H       6.77       7.36      13.95
H       8.15       8.93      15.25
H      10.10       8.04      16.59
H      10.61       5.61      16.55
H       5.84      -0.33      12.07
H       5.17       1.08      11.22
H       6.53      -0.51       9.76
H       7.96      -0.11      10.71
H       6.29       1.89       9.08
H       7.69       2.32      10.03
H       7.68       0.43       7.61
H       9.09       0.74       8.60
H       8.94       3.22       8.04
H       9.16       2.23       6.58
H       7.55       2.88       6.99
O       9.38       3.81      15.25
O       6.10       5.31      12.94
O       7.75       0.98      13.27
C       9.01       5.10      15.22
