33

N      20.90       2.94      11.16
N      20.05       2.32      12.10
H      19.97       2.67       7.29
H      20.95       3.95       5.44
H      22.81       5.58       5.91
H      23.70       5.79       8.24
H      20.10       1.81      15.22
H      18.72       1.56      14.13
H      19.57       4.27      15.33
H      18.12       4.00      14.37
H      18.65       2.70      17.11
H      17.70       4.16      16.86
H      17.01       1.40      15.72
H      16.11       2.86      15.37
H      16.44       1.56      18.15
H      14.95       1.66      17.19
H      15.66       3.12      17.90
C      22.33       4.38       9.08
C      21.23       3.51       8.82
C      20.78       3.36       7.49
C      21.35       4.07       6.44
C      22.39       4.97       6.71
C      22.89       5.11       8.00
C      20.51       2.80       9.88
O      22.89       4.56      10.27
O      19.48       2.06       9.60
C      20.33       2.72      13.33
C      19.46       2.30      14.47
O      21.31       3.53      13.58
C      18.79       3.53      15.11
C      17.99       3.21      16.38
C      16.73       2.37      16.14
C      15.90       2.17      17.41
