33

C      22.99      26.41      26.34
C      23.42      27.14      27.49
C      24.64      27.86      27.43
C      25.41      27.90      26.27
C      24.96      27.22      25.13
C      23.77      26.50      25.16
C      22.62      27.27      28.70
N      21.44      26.63      28.80
N      20.74      26.90      29.98
C      19.64      26.20      30.04
C      18.68      26.40      31.18
C      19.66      23.53      33.69
C      20.97      23.13      34.38
C      18.52      25.17      32.09
C      19.82      24.78      32.81
O      21.90      25.64      26.32
O      23.03      28.04      29.65
O      19.34      25.32      29.10
H      26.35      28.45      26.26
H      25.54      27.26      24.21
H      23.40      25.97      24.29
H      19.00      27.27      31.76
H      24.94      28.40      28.32
H      17.70      26.65      30.73
H      17.74      25.38      32.82
H      18.16      24.31      31.49
H      20.17      25.63      33.42
H      20.62      24.61      32.07
H      18.88      23.71      34.44
H      19.29      22.70      33.07
H      21.34      23.94      35.02
H      20.84      22.24      35.00
H      21.75      22.92      33.64
