33

H      25.65      27.97      20.08
H      25.81      25.48      20.65
H      25.59      26.47      22.10
H      27.19      25.82      21.69
N      27.43      25.26      15.17
N      28.25      25.93      16.09
C      25.74      23.61      13.47
C      26.84      23.10      14.22
C      27.13      21.72      14.17
C      26.35      20.84      13.43
C      25.27      21.34      12.69
C      24.97      22.70      12.70
C      27.68      23.94      15.07
C      27.94      27.21      16.15
C      28.64      28.10      17.13
C      27.74      28.42      18.34
C      27.50      27.20      19.25
C      26.59      27.51      20.44
C      26.28      26.26      21.27
O      25.37      24.89      13.44
O      28.64      23.40      15.74
O      26.99      27.72      15.41
H      27.98      21.35      14.73
H      26.59      19.78      13.43
H      24.65      20.67      12.10
H      24.13      23.10      12.13
H      28.91      29.03      16.62
H      29.57      27.63      17.47
H      28.21      29.22      18.93
H      26.78      28.81      17.98
H      28.46      26.82      19.60
H      27.05      26.39      18.66
H      27.07      28.27      21.08
