33

C       9.29       9.10      10.00
C       8.18       8.83      10.86
C       7.73       7.50      10.99
C       8.30       6.46      10.27
C       9.35       6.74       9.39
C       9.85       8.03       9.27
C       7.47       9.89      11.58
C       7.25      13.33      11.65
C       6.36      14.46      12.06
C       5.71      15.12      10.83
C       4.92      16.39      11.15
C       3.66      16.15      11.99
C       2.83      17.43      12.19
N       7.84      11.17      11.43
N       6.98      12.10      12.05
O       9.86      10.30       9.85
H       6.90       7.30      11.66
O       6.44       9.59      12.33
H      10.67       8.27       8.59
H       6.99      15.21      12.57
H       9.79       5.94       8.79
O       8.22      13.58      10.83
H       7.90       5.45      10.37
H       5.62      14.12      12.79
H       4.64      16.88      10.21
H       3.93      15.73      12.96
H       3.04      15.39      11.50
H       3.37      18.17      12.80
H       1.88      17.21      12.70
H       2.59      17.91      11.24
H       6.50      15.33      10.10
H       5.04      14.38      10.35
H       5.58      17.11      11.67
