22

Nd      16.08      11.54      10.72
Nd      16.09      15.67      10.43
O      16.24      14.88      12.65
O      15.85      12.66      12.77
C      15.92      13.83      13.30
O      15.79      14.90       8.15
O      16.22      12.78       8.76
O      18.12      14.55      10.23
O      18.34      12.38      10.82
O      14.09      14.49      10.63
O      13.81      12.25      10.56
O      15.45       9.36      11.56
O      15.66       9.62       9.35
O      16.89      17.73      11.38
O      16.37      17.73       9.21
C      16.01      13.68       7.87
C      18.82      13.52      10.52
C      13.36      13.44      10.56
C      15.20       8.97      10.35
C      14.30       7.81      10.13
C      17.72      19.54      10.04
C      16.94      18.29      10.22
