178

Tb      13.37       7.75      12.02
Tb       6.68       3.88       9.67
Tb       6.69       3.87       2.44
Tb      13.39       7.74       4.80
Cu      10.04       5.81       0.00
Cu       3.33       5.81      14.45
Cu      13.38      11.62       0.00
Cu       3.34       5.81       7.23
Cu      10.03       5.81       7.23
Cu       6.69       0.00       7.23
H       2.63       3.75       8.44
H      14.90       4.60      10.20
H      13.75       5.39       9.14
H      13.58       3.55       7.61
H      14.92       3.34       6.45
H       8.84       0.42       8.44
H      15.32      10.64      10.20
H      15.24       9.25       9.14
H      16.89      10.00       7.59
H      16.41      11.28       6.45
H       8.59       7.45       8.43
H       9.89       8.00      10.19
H      11.15       8.60       9.13
H       9.65       9.67       7.61
H       8.79       8.61       6.45
H       9.32       7.87      13.25
H       8.20       7.03      11.49
H       7.05       6.23      12.55
H       6.87       8.07      14.08
H       8.23       8.28       0.78
H      15.51      11.21      13.25
H       8.63       0.99      11.49
H       8.54       2.37      12.55
H      10.21       1.61      14.08
H       9.74       0.34       0.78
H      15.29       4.17      13.25
H       3.20       3.63      11.49
H       4.46       3.02      12.55
H       2.95       1.95      14.07
H       2.11       3.01       0.77
H      17.42       7.87       6.02
H       5.16       7.02       4.26
H       6.31       6.24       5.32
H       6.48       8.07       6.85
H       5.14       8.28       8.00
H      11.24      11.20       6.02
H       4.74       0.98       4.26
H       4.83       2.37       5.32
H       3.16       1.61       6.86
H       3.64       0.34       8.01
H      11.46       4.18       6.02
H      10.16       3.63       4.26
H       8.91       3.03       5.32
H      10.41       1.96       6.85
H      11.27       3.01       8.00
H      10.74       3.75       1.21
H      11.86       4.60       2.97
H      13.01       5.39       1.91
H      13.19       3.56       0.38
H      11.83       3.35      13.69
H       4.56       0.41       1.21
H      11.43      10.64       2.97
H      11.52       9.25       1.90
H       9.85      10.01       0.37
H      10.33      11.28      13.68
H       4.77       7.45       1.21
H      16.85       7.99       2.97
H      15.60       8.60       1.91
H      17.11       9.67       0.38
H      17.95       8.62      13.69
C      15.47       6.56       9.56
C      14.82       5.21       9.29
C      13.90       5.19       6.25
C      14.43       4.06       7.13
C      13.35      10.15       9.54
C      14.84      10.27       9.28
C      15.29       9.49       6.24
C      16.03      10.50       7.12
C      11.30       6.52       9.56
C      10.46       7.76       9.28
C      10.90       8.58       6.24
C       9.66       8.68       7.13
C       8.78       5.06      12.12
C       8.12       6.41      12.40
C       7.21       6.43       0.99
C       7.74       7.56       0.11
C       6.65       1.48      12.14
C       8.14       1.36      12.40
C       8.64       2.15       0.99
C       9.36       1.12       0.11
C       4.61       5.10      12.12
C       3.77       3.87      12.40
C       4.22       3.05       0.98
C       2.98       2.94       0.10
C       4.59       5.06       4.90
C       5.24       6.41       5.17
C       6.16       6.43       8.21
C       5.63       7.56       7.33
C       6.71       1.48       4.91
C       5.22       1.35       5.18
C       4.74       2.15       8.21
C       4.02       1.12       7.34
C       8.75       5.10       4.89
C       9.60       3.87       5.17
C       9.16       3.05       8.21
C      10.40       2.95       7.33
C      11.29       6.57       2.34
C      11.94       5.22       2.06
C      12.85       5.20      13.47
C      12.32       4.06      14.36
C      13.41      10.14       2.32
C      11.92      10.26       2.05
C      11.42       9.47      13.47
C      10.70      10.50      14.35
C      15.44       6.52       2.32
C      16.29       7.75       2.06
C      15.84       8.58      13.47
C      17.08       8.68      14.36
N      15.42       4.53       8.12
N      15.15      11.13       8.12
N       9.57       7.59       8.11
N       8.71       7.10      13.57
N       8.45       0.50      13.57
N       2.88       4.03      13.57
N       4.64       7.10       6.34
N       4.92       0.50       6.35
N      10.49       4.04       6.34
N      11.35       4.53       0.89
N      11.61      11.12       0.88
N      17.18       7.59       0.89
O      15.09       7.22      10.57
O      16.37       7.00       8.77
O      14.47       6.34       6.36
O      12.96       4.97       5.44
O      12.97       9.45      10.53
O      12.52      10.73       8.77
O      14.02       9.44       6.35
O      15.94       8.76       5.44
O      12.06       6.52      10.57
O      11.23       5.52       8.77
O      11.62       7.51       6.36
O      11.17       9.51       5.43
O       8.40       4.41      11.11
O       9.68       4.63      12.92
O       7.78       5.28       0.87
O       6.26       6.65       1.79
O       6.27       2.18      11.16
O       5.83       0.89      12.92
O       7.36       2.22       0.87
O       9.31       2.85       1.80
O       5.38       5.10      11.12
O       4.53       6.10      12.92
O       4.93       4.11       0.87
O       4.50       2.12       1.79
O       4.98       4.40       3.89
O       3.69       4.63       5.69
O       5.59       5.29       8.10
O       7.10       6.65       9.02
O       7.09       2.17       3.92
O       7.54       0.90       5.69
O       6.01       2.23       8.10
O       4.08       2.86       9.02
O       8.00       5.10       3.88
O       8.80       6.10       5.70
O       8.45       4.11       8.10
O       8.90       2.12       9.02
O      11.67       7.22       3.35
O      10.39       7.00       1.54
O      12.28       6.34      13.59
O      13.79       4.97      12.66
O      13.79       9.45       3.30
O      14.23      10.73       1.54
O      12.70       9.40      13.58
O      10.76       8.77      12.66
O      14.64       6.53       3.30
O      15.54       5.52       1.53
O      15.13       7.51      13.58
O      15.57       9.51      12.66
