162

C       0.13      16.56       9.54
C       0.26      15.25      10.13
C       9.71      16.57       8.16
C       9.62      14.11       9.50
C       9.32      15.43       7.44
C       9.13      14.22       8.16
C       0.97      14.98       5.69
C       9.61      15.38       6.04
C       8.59      15.27       5.06
C       9.77      12.78      10.02
C       8.72      12.11      10.70
C       0.30      -5.21      10.25
C       0.02      -5.14      11.65
C       0.06      -3.95      12.40
C       0.11      -2.71      11.70
C       0.36      -2.71      10.29
C       0.62      -3.95       9.62
C       0.08      -0.12      19.23
C       9.60       1.02      18.48
C       9.18       0.94      17.14
C       8.98      -0.35      16.57
C       9.56      -1.50      17.20
C       0.27      -1.32      18.46
C       0.24      11.49       0.73
C       0.50      12.70       1.47
C       0.29      12.75       2.89
C       0.10      11.54       3.62
C       0.06      10.29       2.92
C       9.95      10.32       1.51
C       0.04       4.97      10.31
C       9.72       3.76       9.61
C       9.34       2.56      10.24
C       9.12       2.58      11.64
C       9.56       3.70      12.41
C       0.15       4.85      11.74
C       0.07       6.22       9.57
C       0.31       6.30       8.15
C       9.64       7.33       7.38
C       9.10       8.46       8.07
C       9.34       8.61       9.47
C       9.69       7.45      10.20
C       0.18      13.99       3.59
C       1.23      14.32       4.48
C       8.84      14.54       3.85
C       9.89       7.48       5.99
C       1.14       8.14       5.64
C       1.24       8.88       4.46
C       0.12       9.05       3.61
C       8.91       8.25       3.86
C       8.84       7.44       5.03
C       0.83      12.00       9.42
C       0.74      10.60       9.40
C       9.60       9.91       9.99
C       8.63      10.68      10.69
C       9.81      -2.62      16.36
C       1.07      -2.60      15.64
C       1.20      -3.29      14.42
C       0.10      -3.96      13.83
C       8.87      -4.14      14.63
C       8.78      -3.50      15.91
C       9.70       3.51      13.82
C       0.75       2.60      14.22
C       0.63       1.88      15.42
C       9.46       2.03      16.27
C       8.50       3.03      15.94
C       8.61       3.76      14.71
C       0.27      -1.48       9.58
C       1.31      -0.54       9.79
C       1.03       0.84       9.83
C       9.67       1.33       9.60
C       8.68       0.41       9.16
C       8.94      -0.99       9.18
H       9.62      17.46       7.66
H       1.19      14.20      11.63
H       1.66      15.77      11.52
H       1.71      15.00       6.40
H       1.56      12.44       8.84
H       9.75      -6.00      12.16
H       1.78      18.32       8.13
H       1.64      -3.07       8.08
H       8.22      12.40       8.04
H       8.07      13.27       6.68
H       9.89      -0.68      11.97
H       9.50      -1.54      13.28
H       9.50       1.93      18.92
H       9.74       9.43       1.05
H       1.76      -2.10      19.63
H       1.28      -3.12      18.44
H       1.40      14.54       1.39
H       1.57      13.65       0.02
H       9.93      12.33       5.51
H       9.62      10.75       5.46
H       8.00      -1.24      15.01
H       7.76       0.37      15.10
H       9.66       3.74       8.59
H       9.61       7.53      11.21
H       1.49       6.36      11.98
H       1.04       5.67      13.40
H       1.38       5.45       6.61
H       1.76       4.86       8.10
H       8.10       9.38       6.53
H       7.91      10.11       7.97
H       8.19       1.55      13.15
H       8.08       0.81      11.71
H       2.15      13.87       4.37
H       2.07       9.47       4.35
H       1.89       8.24       6.33
H       1.43      10.09       8.83
H       2.04      -3.10      13.86
H       1.82      -1.95      15.90
H       1.32       1.13      15.59
H       1.50       2.34      13.58
H       1.75       1.46      10.22
H       2.21      -0.85      10.18
N       1.05      15.07      11.23
N       7.65      12.81      11.32
N       8.48      13.18       7.55
N       7.29      15.82       5.24
N       9.81      -1.55      12.37
N       1.32      -3.91       8.45
N       8.27      -0.40      15.41
N       9.87      11.54       4.97
N       1.13      -2.28      18.91
N       1.12      13.76       0.88
N       8.48       1.53      12.23
N       8.39       9.45       7.45
N       0.89       5.75      12.44
N       1.17       5.42       7.56
N       7.72      14.31       3.01
N       7.72       8.34       3.09
N       7.66       6.66       5.23
N       7.49      10.10      11.30
N       7.70      -4.79      14.17
N       7.60      -3.73      16.67
N       7.34       3.26      16.72
N       7.55       4.64      14.39
N       7.39       0.84       8.73
N       7.85      -1.85       8.89
O       7.35      17.06       5.40
O       8.06      13.61      12.20
O       6.93      13.44      10.50
O       6.64      15.33       6.19
O       7.94      14.70       1.83
O       7.35      13.11       3.00
O       7.20       9.48       3.08
O       7.94       5.45       5.37
O       7.87       7.93       1.92
O       6.96       7.03       6.19
O       6.73       9.53      10.48
O       7.80       9.29      12.21
O       7.19      -4.24      13.16
O       7.88      -4.21      17.80
O       7.89      -6.01      13.95
O       6.87      -2.72      16.83
O       6.58       2.27      16.79
O       7.97       5.81      14.16
O       7.63       3.64      17.88
O       6.86       4.25      13.41
O       6.70       1.39       9.62
O       8.11      -2.66       7.97
O       7.47       1.61       7.75
O       7.43      -2.47       9.90
