38

H       7.28       2.46       1.66
H       5.93       4.07      -2.60
H       6.97       2.65      -0.78
H       4.07       5.26       2.27
H      -0.45       5.68      -1.75
H      -0.23       5.63       0.68
H       1.06       4.98       2.61
H       2.95       2.95       2.78
H       1.96       2.54       1.33
H       1.20       2.74       2.95
H       5.35       6.33      -3.34
H       2.56       7.33      -3.18
H       4.03       8.19      -3.71
H       3.82       7.80      -1.95
C       2.98       4.82      -0.16
C       2.87       5.03      -1.54
C       4.24       4.41       0.32
C       5.19       3.87      -0.59
C       5.11       4.25      -1.92
C       4.07       5.10      -2.29
C       4.63       4.59       1.62
C       6.50       3.09       1.27
C       1.60       5.10      -2.12
C       1.41       4.75      -3.55
C       5.90       3.93       3.54
C       6.28       3.14      -0.10
C       5.72       3.89       2.12
C       0.51       5.44      -1.31
C       0.64       5.42       0.07
C       1.82       4.96       0.66
C       1.98       3.13       2.27
C       3.65       7.43      -2.99
N       1.80       4.55       2.03
N       4.34       6.17      -3.19
O       0.20       4.70      -4.04
O       2.46       4.48      -4.27
O       4.83       4.07       4.27
O       7.09       3.85       4.04
