12

C       6.10       6.24       3.59
N       4.29       5.81       4.80
C       3.90       6.62       3.78
N       5.65       5.58       4.67
N       2.60       7.00       3.59
C       5.04       6.93       2.98
C       5.08       7.82       1.84
O       6.22       8.15       1.36
H       7.14       6.19       3.29
O       3.93       8.23       1.41
H       2.07       7.19       4.44
H       2.51       7.73       2.88
