12

H       5.54       3.81       3.22
H       5.98       2.39       2.34
C       7.38       3.06       3.58
N       7.80       3.82       4.62
C       9.60       2.84       3.80
N       9.16       3.67       4.75
C       8.51       2.41       3.01
N       6.06       2.94       3.20
C       8.51       1.57       1.83
O       7.36       1.24       1.35
O       9.65       1.24       1.35
H      10.64       2.56       3.72
