12

Cu       3.19       3.64      11.86
C       1.65       3.38      14.27
O       3.17       1.69      11.81
O       2.80       5.55      11.87
N       5.98       3.16      11.34
O       3.13       3.74       9.92
O       2.84       3.50      13.76
H       5.64       4.48      12.75
C       1.62       6.04      11.76
N       5.18       3.85      12.09
C       2.08       3.60       9.16
C       2.11       0.97      11.67
