342

C      -3.75       5.61      12.12
C      -5.46      10.47      15.82
C      -4.93       6.44      12.56
C      -4.83      11.25      16.93
C       0.51      11.69       0.64
C       0.91      10.66       1.65
C      11.15       6.69      14.12
C      -3.11       4.76      13.03
C       9.71       6.50      14.32
C      -2.10       3.92      12.57
C       6.94       6.18      16.58
C      -3.32       5.62      10.80
C       7.82       6.29      15.41
C       7.50       6.27      14.07
C      -6.22       5.04      16.54
C      -5.84       4.08      17.46
C      -2.29       4.77      10.41
C       8.72       6.41      13.37
C       0.88      17.94       0.32
C       0.96      13.01       0.71
C      -4.94       6.66      17.60
C       1.45      18.71       1.33
C       1.01      -6.70      16.74
C       1.57      -5.99      17.80
C       9.80      -1.12       9.76
C      11.79      -2.32      15.65
C      10.20      -2.23      10.69
C      12.33      -1.52      16.79
C      -3.80      -0.55      11.07
C      -2.64       0.19      10.49
C       7.12      13.62      11.51
C      10.74      -0.18       9.32
C       7.75      12.30      11.41
C      10.35       0.75       8.36
C      10.65      10.24      11.96
C       8.49      -1.03       9.27
C       9.32      10.78      11.63
C       8.22      10.13      11.11
C      14.61      -2.31      10.89
C      15.68      -1.61      10.34
C       8.17      -0.06       8.33
C       7.21      11.12      10.96
C      -6.45      -0.93      16.74
C      -4.34      -0.24      12.32
C      14.62      -0.98      12.79
C      -5.98      -0.21      17.84
C      17.07       5.91       0.09
C      17.61       6.64       1.15
C       6.42      12.02       2.64
C      11.57      15.55       3.73
C       7.55      12.75       1.97
C      12.15      16.28       4.91
C      11.10      -0.80       3.65
C      10.01       0.11       4.12
C       3.38       8.35      16.94
C       5.43      12.71       3.34
C       3.59       9.08      15.69
C       4.35      12.00       3.84
C       4.05      12.22      13.99
C       6.32      10.62       2.53
C       3.92      10.81      14.36
C       3.99       9.68      13.57
C       6.55      17.05       1.96
C       5.52      17.87       2.40
C       5.21       9.98       3.08
C       3.78       8.57      14.42
C      17.01      -1.86       5.43
C      12.26      -1.03       4.41
C       7.77      17.41       3.91
C      17.60      -1.21       6.52
C      -6.72      15.83       5.51
C      -6.19      16.54       6.58
C      -0.23      -3.81      11.57
C       1.77       2.10      12.67
C       0.18      -2.53      10.90
C       2.31       2.86      13.85
C       6.22      -2.81      12.59
C       7.39      -3.62      13.06
C       2.57      -0.48       8.01
C       0.71      -4.58      12.28
C       3.21      -0.08       6.76
C      -5.15      13.48      12.78
C       6.10       1.22       5.05
C      -1.54      -4.29      11.46
C       4.78       0.70       5.42
C       3.67       0.46       4.63
C       4.58      -2.31      10.89
C       5.65      -3.08      11.33
C      -7.32      13.76      12.01
C       2.67      -0.04       5.49
C       3.58       2.59      14.37
C       5.68      -1.76      13.35
C       4.60      -1.05      12.84
C       4.05       3.33      15.45
C       1.56       3.87      14.45
C       2.10       4.58      15.52
C      -3.60      11.19       3.19
C       1.54      10.88       6.88
C      -2.48      10.29       3.62
C       2.12      11.70       8.00
C      -4.40       9.70       9.57
C      -5.50       9.80      10.59
C      -1.16       6.54       5.18
C      -4.59      11.59       4.10
C      -0.95       5.10       5.38
C      14.38      12.32       3.63
C      -0.50       2.35       7.65
C      -3.71      11.62       1.86
C      -0.63       3.22       6.48
C      -0.56       2.91       5.13
C      -3.48       8.67       7.60
C      -4.51       8.77       8.53
C      15.24      12.37       1.47
C      -0.76       4.12       4.43
C       1.51      11.75       9.25
C      -3.25      10.49       9.64
C      -2.27      10.34       8.67
C       2.10      12.52      10.26
C       3.30      12.42       7.80
C       3.84      13.15       8.87
C      11.75       3.11       0.82
C      10.04       4.70       6.71
C      10.57       3.19       1.75
C      10.67       5.44       7.86
C      10.53       9.46       2.13
C      10.93      10.79       1.56
C       6.61       4.55       2.57
C      12.40       4.27       0.38
C       5.17       4.80       2.47
C       7.91      -3.10      17.30
C       2.40       7.03       3.02
C      12.19       1.87       0.33
C       3.28       5.90       2.69
C       2.96       4.66       2.17
C       9.29       7.41       1.95
C       9.67       8.63       1.41
C       7.73      -5.42      17.27
C       4.18       3.96       2.03
C      10.89       6.82       7.80
C      10.98       9.03       3.39
C      10.57       7.79       3.86
C      11.46       7.46       8.90
C      11.04       4.76       9.02
C      11.60       5.48      10.08
Co      -6.28       7.61      15.01
Co      -6.63      10.95      12.99
Co      12.57       7.88      11.71
Co      12.36      13.31       1.74
Co      -0.60       2.25      10.68
Co       2.33       9.88       4.06
Co       4.13       5.50      17.60
Co       8.01       1.88       2.77
Co      -0.40       8.23       2.78
Co      12.34      -3.02      12.70
Co       9.42      -4.21      15.04
Co       4.16      14.24      11.71
Co       8.87       1.90       6.10
Co      -0.39      -0.54       8.66
Co       9.05      15.40       1.98
Co       2.31      -0.37      10.92
Co      -0.98       9.32       6.08
Co       9.23       5.03       3.76
H      -3.42       4.75      14.07
H      -1.59       3.22      13.23
H      -3.79       6.29      10.08
H       6.49       6.18      13.68
H      -6.91       4.81      15.73
H      -6.19       3.05      17.40
H      -1.92       4.73       9.38
H       8.90       6.45      12.30
H       0.57      16.91       0.52
H       1.63      13.31       1.51
H      -4.62       7.70      17.61
H       1.65      18.29       2.31
H       0.85      -6.22      15.78
H       1.84      -4.94      17.70
H      -7.87       9.02      13.79
H      11.75      -0.21       9.70
H      11.06       1.48       7.96
H       7.74      -1.74       9.62
H       8.18       9.08      10.87
H      14.16      -3.16      10.37
H      16.09      -1.86       9.37
H       7.17       0.04       7.91
H       6.19      11.01      10.61
H      -5.82      -1.06      15.86
H      -3.91       0.57      12.90
H      14.16      -0.77      13.76
H      -5.01       0.27      17.82
H      16.08       5.46       0.16
H      17.06       6.76       2.08
H      11.17      -5.01      13.55
H       5.51      13.79       3.45
H       3.54      12.50       4.37
H       7.09      10.06       2.01
H       4.17       9.69      12.50
H       6.52      16.58       0.97
H       4.63      18.04       1.80
H       5.08       8.90       3.02
H       3.78       7.51      14.20
H      16.11      -1.47       4.98
H      12.36      -0.55       5.38
H       8.68      17.19       4.46
H      17.14      -0.33       6.96
H      -6.22      14.95       5.12
H      -5.25      16.24       7.05
H      10.82      14.69       0.46
H       1.73      -4.21      12.39
H      -4.44      12.83      13.31
H      -2.29      -3.70      10.94
H       3.64       0.64       3.57
H       4.14      -2.48       9.91
H       6.06      -3.89      10.74
H      -8.33      13.33      11.95
H       1.65      -0.33       5.26
H       4.21       1.82      13.92
H       6.11      -1.53      14.32
H       4.14      -0.23      13.39
H       5.02       3.13      15.89
H       0.57       4.12      14.06
H       1.55       5.40      15.99
H       1.15       1.15       9.39
H      -4.52      11.28       5.14
H      13.57      12.62       4.29
H      -2.93      11.35       1.15
H      -0.38       1.92       4.75
H      -3.51       7.94       6.79
H      -5.40       8.15       8.46
H      15.11      12.72       0.45
H      -0.77       4.31       3.37
H       0.61      11.18       9.45
H      -3.14      11.21      10.45
H      -1.35      10.93       8.67
H       1.64      12.59      11.24
H       3.81      12.39       6.84
H       4.77      13.70       8.76
H       0.80       8.17       4.85
H      12.09       5.24       0.76
H       8.42      -2.23      16.90
H      11.72       0.95       0.68
H       1.95       4.34       1.94
H       8.60       6.75       1.43
H       9.32       8.95       0.43
H       8.10      -6.36      16.85
H       4.36       2.95       1.67
H      10.59       7.39       6.92
H      11.65       9.67       3.97
H      10.89       7.40       4.82
H      11.66       8.53       8.88
H      10.88       3.69       9.10
H      11.87       4.99      11.01
H       7.64       3.36       4.61
N       7.28       0.71       1.15
N      -5.77       6.32      16.59
N      -1.71       3.90      11.27
N      11.81       6.81      10.03
N      -6.40      12.99      12.64
N      -1.22       7.21       1.10
N      14.07      -2.00      12.09
N       9.10       0.80       7.85
N       3.24      13.21      10.08
N       8.30      -4.30      16.79
N      -1.31      -1.64       7.10
N       7.66      16.81       2.69
N       4.22      10.66       3.70
N       3.32       4.31      16.03
N      14.25      12.69       2.33
N       4.05      -1.31      11.63
N      -2.37       9.44       7.65
N       9.74       6.98       3.16
O      -6.97       8.90      13.43
O      -5.73       6.78      11.64
O       0.61       9.45       1.40
O       5.71       5.99      16.32
O      11.57       6.48      12.93
O      -5.68       9.23      16.04
O       1.52      11.08       2.69
O      -5.71      11.13      14.76
O       7.50       6.28      17.74
O      -8.19       7.06      15.13
O       9.17       6.44      15.58
O      -5.01       6.67      13.81
O      -6.58       9.18      10.34
O      10.81       9.01      11.69
O      -5.25      10.50      11.63
O      11.49      11.06      12.49
O      10.65      -4.23      13.30
O       9.48      -3.27      10.65
O      -2.34      -0.04       9.28
O       6.02      13.75      10.88
O      12.51      -2.35      14.59
O      -2.03       0.99      11.28
O      10.68      -2.90      15.87
O      13.17      -4.78      12.23
O       9.05      12.11      11.83
O      11.26      -2.02      11.38
O       7.68      -4.65      12.38
O       4.22      12.43      12.75
O       8.00      -3.19      14.10
O       3.99      13.08      14.95
O      10.47      14.04       1.09
O       8.11      12.16       1.00
O       8.93       0.11       3.45
O       3.07       7.13      16.81
O      10.43      15.97       3.31
O      10.26       0.82       5.16
O      12.28      14.60       3.28
O       9.05      16.24       0.18
O       3.69      10.46      15.67
O       7.79      13.92       2.43
O      10.63      11.01       0.34
O      11.54      11.60       2.34
O       0.62       0.63      10.03
O      -0.55      -2.15       9.93
O       6.26       1.44       3.81
O       1.47      -1.12       7.87
O       2.49       1.13      12.25
O       0.66       2.51      12.22
O       6.94       1.40       6.01
O       3.13      -0.13       9.11
O       4.51       0.39       6.73
O       1.24      -1.98      11.36
O      -0.34       1.11       7.38
O      -0.56       2.91       8.81
O       0.45       9.00       4.49
O      -1.92       9.62       2.71
O      -1.47       6.88       3.99
O       0.41      10.33       7.11
O       2.24      10.82       5.82
O      -0.99       7.32       6.19
O      -0.86       4.57       6.65
O      -2.24      10.27       4.89
O       1.17       6.85       2.76
O       2.96       8.06       3.55
O       8.53       3.07       4.36
O       9.77       2.21       1.72
O       7.03       3.53       1.94
O       9.82       5.37       5.65
O       9.79       3.47       6.93
O       7.31       5.34       3.30
O       4.63       6.00       2.89
O      10.49       4.27       2.43
