244

Na       1.09      13.91      10.27
Na       4.11      24.87      11.00
Na       3.63      17.22       1.81
Na       1.48       6.25       1.03
Na       4.11      23.10      13.79
Na       1.09      12.15      13.06
Na       1.57      19.79      22.24
Na       3.72      30.77      23.03
Zn       1.26      25.16      13.05
Zn       3.81      17.74      23.05
Zn       3.93      11.86      11.01
Zn       1.39      19.28       1.01
H       0.67      28.08      13.57
H       1.43      29.97      14.99
H       3.20      29.45      17.57
H       2.46      27.48      16.21
H       1.53      32.37      15.03
H       0.76       9.06      13.57
H       2.53       9.73      16.11
H       3.21      32.95      17.52
H       3.59      21.95      10.28
H       4.08      19.74       9.28
H       0.41      18.19      10.93
H       5.07      20.42      11.92
H       3.94      18.53       7.29
H       3.28      18.77       4.89
H       4.95      16.39       5.57
H       0.37      16.16       7.98
H       3.25      14.85      22.51
H       4.01      12.95      21.10
H       0.62      13.48      18.52
H       5.04      15.45      19.88
H       4.11      10.57      21.05
H       3.37      33.88      22.52
H       5.14      33.20      19.99
H       0.62       9.98      18.57
H       1.00       9.17       1.74
H       1.48      11.37       2.75
H       2.96      12.92       1.11
H       2.48      10.70       0.10
H       1.34      12.57       4.75
H       0.70      12.35       7.16
H       2.36      14.72       6.49
H       2.92      14.93       4.06
H       4.53       8.94      10.49
H       3.76       7.04       9.07
H       2.00       7.57       6.49
H       2.73       9.54       7.85
H       3.67       4.65       9.03
H       4.44      27.96      10.49
H       2.67      27.29       7.95
H       1.99       4.07       6.54
H       1.61      15.07      13.78
H       1.12      17.28      14.78
H       4.78      18.83      13.13
H       0.13      16.60      12.14
H       1.26      18.49      16.77
H       1.92      18.25      19.17
H       0.25      20.63      18.49
H       4.83      20.86      16.08
H       1.94      22.17       1.55
H       1.18      24.07       2.96
H       4.58      23.54       5.54
H       0.15      21.57       4.18
H       1.09      26.45       3.00
H       1.82       3.14       1.54
H       0.06       3.82       4.07
H       4.57      27.04       5.49
H       4.20      27.85      22.32
H       3.72      25.65      21.31
H       2.23      24.10      22.95
H       2.71      26.32      23.96
H       3.86      24.45      19.31
H       4.50      24.66      16.90
H       2.84      22.29      17.57
H       2.27      22.09      20.00
C       3.54      26.54      13.95
C       4.11      27.64      14.80
C       0.11      28.34      14.46
C       0.56      29.40      15.26
C       4.96      29.77      16.39
C       3.79      29.10      16.73
C       3.36      28.03      15.94
C       5.00      32.58      16.37
C       0.62       7.73      15.27
C       0.18       8.76      14.43
C       4.15       9.44      14.71
C       3.39       9.11      15.86
C       3.82      33.27      16.68
C       3.66      10.54      13.82
C       1.30      22.68      11.68
C       1.70      21.34      11.13
C       2.87      21.14      10.41
C       3.18      19.88       9.88
C       2.30      18.82      10.12
C       1.12      19.01      10.82
C       0.81      20.27      11.33
C       2.20      17.30       7.77
C       3.04      18.04       6.92
C       2.66      18.21       5.58
C       1.47      17.65       5.11
C       0.66      16.88       5.97
C       1.03      16.71       7.31
C       1.01      17.82       3.69
C       0.97      16.38      22.14
C       1.54      15.29      21.29
C       2.69      14.58      21.62
C       3.14      13.52      20.82
C       2.39      13.16      19.69
C       1.21      13.83      19.36
C       0.78      14.90      20.15
C       2.42      10.35      19.71
C       3.23      35.20      20.82
C       2.79      34.17      21.65
C       1.60      33.49      21.37
C       0.84      33.82      20.23
C       1.24       9.67      19.41
C       1.11      32.38      22.25
C       3.85       8.43       0.32
C       4.27       9.77       0.89
C       0.28       9.97       1.62
C       0.58      11.23       2.15
C       4.86      12.30       1.92
C       3.67      12.11       1.21
C       3.37      10.84       0.70
C       4.77      13.81       4.28
C       0.45      13.06       5.13
C       0.07      12.90       6.47
C       4.04      13.47       6.94
C       3.23      14.23       6.08
C       3.59      14.39       4.73
C       3.60      13.32       8.37
C       1.66      10.48      10.11
C       1.08       9.38       9.26
C       5.09       8.68       9.60
C       4.64       7.62       8.79
C       0.23       7.25       7.67
C       1.40       7.92       7.33
C       1.84       8.99       8.12
C       0.20       4.43       7.68
C       4.57      29.29       8.79
C       5.02      28.26       9.62
C       1.05      27.58       9.35
C       1.81      27.91       8.20
C       1.38       3.75       7.38
C       1.54      26.48      10.24
C       3.90      14.33      12.38
C       3.50      15.68      12.93
C       2.32      15.88      13.65
C       2.01      17.14      14.18
C       2.90      18.20      13.94
C       4.08      18.01      13.24
C       4.39      16.75      12.73
C       2.99      19.72      16.29
C       2.15      18.98      17.14
C       2.54      18.81      18.48
C       3.73      19.37      18.95
C       4.53      20.14      18.09
C       4.17      20.31      16.75
C       4.18      19.20      20.37
C       4.23      20.64       1.92
C       3.66      21.73       2.77
C       2.50      22.44       2.44
C       2.06      23.50       3.24
C       2.81      23.86       4.37
C       3.98      23.19       4.70
C       4.41      22.12       3.91
C       2.78      26.67       4.35
C       1.97       1.82       3.24
C       2.41       2.85       2.41
C       3.60       3.53       2.69
C       4.36       3.20       3.83
C       3.96      27.35       4.65
C       4.09       4.64       1.81
C       1.34      28.59      23.74
C       0.93      27.25      23.17
C       4.92      27.05      22.44
C       4.61      25.79      21.91
C       0.34      24.72      22.14
C       1.52      24.91      22.85
C       1.82      26.18      23.36
C       0.43      23.21      19.78
C       4.75      23.96      18.93
C       5.13      24.12      17.59
C       1.15      23.55      17.12
C       1.97      22.79      17.98
C       1.61      22.63      19.32
C       1.59      23.70      15.69
S       0.33      31.18      17.35
S       2.67      17.19       9.49
S       2.92      11.75      18.72
S       0.07      13.92       2.56
S       4.87       5.84       6.71
S       2.53      19.82      14.57
S       2.28      25.27       5.33
S       5.12      23.10      21.50
O       4.20      25.73      13.21
O       2.27      26.50      14.06
O       2.62      11.15      14.17
O       4.36      10.80      12.76
O       4.76      31.18      18.61
O       1.79      31.17      17.31
O       2.17      23.46      12.24
O       4.12      17.07       9.48
O       1.84      16.23      10.22
O       1.84      18.39       2.86
O       5.04      17.36       3.42
O       0.08      22.97      11.58
O       1.63      17.21      22.87
O       4.86      16.41      22.06
O       0.08      31.76      21.89
O       1.82      32.13      23.32
O       2.20      11.76      17.45
O       4.38      11.76      18.78
O       4.74      19.41      23.90
O       1.53      14.04       2.55
O       4.39      14.88       1.85
O       4.45      12.78       9.19
O       2.46      13.75       8.63
O       2.61       8.20       0.33
O       1.00      11.29      10.84
O       2.92      10.52      10.00
O       2.57      25.87       9.88
O       0.83      26.22      11.30
O       0.44       5.84       5.44
O       3.41       5.85       6.75
O       3.03      13.56      11.82
O       1.07      19.95      14.58
O       3.36      20.79      13.84
O       3.35      18.63      21.19
O       0.15      19.66      20.64
O       5.12      14.04      12.48
O       3.56      19.81       1.19
O       0.34      20.61       1.99
O       5.11       5.26       2.17
O       3.38       4.89       0.74
O       3.00      25.26       6.60
O       0.82      25.26       5.27
O       0.46      17.61       0.15
O       3.67      22.97      21.51
O       0.81      22.14      22.21
O       0.75      24.24      14.87
O       2.73      23.27      15.42
O       2.58      28.82      23.73
