24

H       8.34       9.88       2.03
H       7.53      10.40       4.29
H      10.07      13.91       4.23
H      10.83      13.22       1.99
H       8.89      13.47       6.24
H       7.56      14.59      10.53
H       8.37      14.07       8.26
H       5.83      10.56       8.32
H       5.07      11.25      10.56
H       7.01      11.00       6.31
C       8.70      10.77       2.54
C       8.26      11.06       3.82
C       8.73      12.21       4.51
C       9.67      13.00       3.80
C      10.09      12.63       2.53
C       8.38      12.58       5.86
C       7.20      13.70      10.01
C       7.64      13.41       8.73
C       7.17      12.26       8.04
C       6.23      11.48       8.75
C       5.81      11.84      10.03
C       7.52      11.90       6.69
N       9.61      11.54       1.87
N       6.29      12.93      10.68
