13

N       9.87       1.50      32.47
O       8.74       3.70      28.18
C      11.04       1.74      31.84
H       7.73       2.52      30.07
O      10.97       3.37      27.91
H      12.04       2.47      30.07
C       8.71       1.76      31.83
C       8.68       2.30      30.55
C       9.87       3.23      28.57
H       7.80       1.53      32.39
C      11.09       2.26      30.55
C       9.89       2.56      29.89
H      11.93       1.51      32.41
