13

C      22.38       8.31       3.73
H      24.19      11.00       3.19
C      23.53      10.33       3.74
N      23.17       9.20       3.10
C      22.24       9.71       5.68
O      20.99       9.17       7.65
C      21.90       8.52       5.02
H      23.36      11.55       5.51
C      23.08      10.62       5.02
C      21.66      10.06       7.00
O      21.83      11.27       7.39
H      22.13       7.42       3.16
H      21.24       7.80       5.50
