13

H      16.99       7.50       3.19
O      16.99      11.17       7.66
N      15.94       9.27       3.10
C      15.56      10.41       3.72
C      16.84       9.82       5.68
H      17.88       7.93       5.51
H      15.69      11.65       5.49
O      18.40       9.40       7.39
C      17.42      10.15       7.00
C      17.21       8.64       5.02
C      15.99      10.72       5.01
H      14.92      11.07       3.15
C      16.74       8.40       3.74
