20

C      18.43       6.46      33.01
H      19.61       8.28      35.64
H      17.50       6.15      32.55
O      19.56       5.23      31.35
C      18.41       7.26      34.15
C      19.65       6.05      32.45
H      21.35       5.70      30.35
C      19.62       7.66      34.75
C      20.85       6.49      33.01
C      20.80       4.83      30.74
C      17.09       7.72      34.71
C      22.14       7.75      34.74
O      23.18       7.58      34.01
O      22.13       8.26      35.91
H      21.81       6.24      32.58
H      21.43       4.28      31.46
C      20.83       7.29      34.16
O      17.09       8.20      35.89
H      20.52       4.16      29.92
O      16.07       7.59      33.95
