20

H       7.15       4.15      17.88
C       6.91       2.59      16.40
C       6.22       2.17      15.25
O       4.48       2.65      13.59
C       5.24       2.99      14.69
C       6.62       3.83      16.99
C       5.67       4.67      16.39
H       4.25       4.90      14.78
H       5.79       1.36      12.58
C       4.76       1.39      12.98
C       5.40       6.04      16.94
O       8.39       1.96      18.15
H       4.05       1.30      12.15
C       7.96       1.69      16.99
O       8.33       0.71      16.26
H       6.49       1.21      14.83
H       4.62       0.56      13.68
O       4.77       6.86      16.19
C       4.98       4.25      15.24
O       5.82       6.29      18.12
