20

C      13.93       4.68      16.39
H      12.45       4.12      17.87
O      15.08       2.55      13.57
C      14.41       3.04      14.68
C      14.63       4.30      15.24
C      13.00       3.82      16.97
H      13.25       1.22      14.78
H      15.55       4.33      12.57
C      12.74       2.57      16.37
C      16.04       3.43      12.97
C      11.70       1.66      16.93
C      14.19       6.03      16.98
O      13.74       6.27      18.15
H      16.48       2.86      12.14
O      14.84       6.86      16.25
H      15.33       5.01      14.81
H      16.83       3.72      13.68
O      11.27       1.91      18.11
C      13.45       2.19      15.23
O      11.30       0.70      16.19
