20

H       7.18       4.14      35.48
O       8.36       1.91      35.23
O       8.34       0.74      37.18
C       5.23       3.07      38.68
C       3.61       3.46      40.39
C       7.94       1.68      36.42
O       4.57       2.59      39.79
C       6.64       3.85      36.37
H       6.40       1.26      38.58
H       4.08       4.38      40.78
C       6.89       2.60      36.97
O       4.79       6.89      37.12
C       5.01       4.33      38.11
H       4.31       5.04      38.54
O       5.90       6.33      35.22
C       5.71       4.72      36.96
H       2.82       3.74      39.67
H       3.17       2.89      41.21
C       6.19       2.22      38.12
C       5.45       6.08      36.39
