13

O      12.07       5.74      28.18
H      14.43       6.01      32.37
H      13.60       5.46      30.05
C      13.77       6.68      31.82
O      11.23       7.84      27.91
H      12.39       9.60      32.41
C      12.14       8.49      30.55
C      11.90       6.96      28.57
H      11.49       9.22      30.07
C      12.48       7.30      29.89
C      12.63       8.70      31.84
C      13.32       6.38      30.54
N      13.42       7.81      32.46
