13

C      23.17      10.72      12.78
C      21.94       8.64      12.78
C      22.31       9.83      12.13
N      23.24       9.26      14.69
H      23.48      11.64      12.30
H      24.27      11.05      14.64
O      20.73       9.43      10.43
C      23.61      10.40      14.07
H      22.18       7.49      14.61
C      22.43       8.39      14.05
H      21.28       7.93      12.29
C      21.72      10.16      10.81
O      22.15      11.18      10.15
