20

Co       3.95       5.68      13.32
Co       2.20       6.90      14.79
C       3.31       4.48      15.89
C       6.82       4.91      13.50
C       6.10       4.93      11.30
C       1.45       4.80      12.58
C       2.84       8.09      12.21
C      -0.66       7.66      14.60
C       0.06       7.65      16.80
C       4.70       7.78      15.53
N       5.82       5.11      12.61
N       0.34       7.47      15.49
O       2.39       5.34      16.06
O       4.07       4.40      14.87
O       2.67       4.55      12.24
O       1.09       5.57      13.52
O       3.77       7.23      12.05
O       2.08       8.17      13.23
O       3.49       8.02      15.86
O       5.06       7.01      14.58
