20

Co      10.96       0.61       6.29
Co      12.71      -0.61       7.76
C       8.10       1.38       6.48
C       8.82       1.36       4.28
C      13.46       1.49       5.55
C      11.60       1.81       8.87
C      15.58      -1.38       7.58
C      14.86      -1.36       9.78
C      10.21      -1.49       8.50
C      12.07      -1.81       5.18
N       9.09       1.18       5.59
N      14.58      -1.18       8.46
O      12.25       1.73       5.22
O      13.82       0.72       6.50
O      12.53       0.94       9.03
O      10.84       1.88       7.84
O      11.43      -1.73       8.84
O       9.85      -0.72       7.56
O      11.15      -0.94       5.02
O      12.83      -1.88       6.21
