248

Co       9.06       9.06      22.64
Co       3.02       3.02      10.37
Co       3.02       3.02       1.90
Co       9.06       9.06      14.17
H       7.03       6.94      21.53
H       6.82       5.27      20.01
H      10.44       6.24      18.59
H      10.53       7.86      20.21
H       9.72       4.96      16.80
H      10.32       3.97      17.87
H       9.89       1.89      14.99
H      10.89       2.09      16.19
H       1.18       1.36      12.21
H      11.67       1.48      13.88
H       0.17       5.36      13.89
H       1.48       5.13      12.05
H       6.39      10.46      22.09
H      11.09      11.18      21.53
H      11.30       0.77      20.01
H       7.68      11.88      18.59
H       7.58      10.26      20.21
H       8.40       1.08      16.80
H       7.80       2.07      17.87
H       8.23       4.15      14.99
H       7.22       3.95      16.19
H       4.86       4.68      12.21
H       6.45       4.56      13.88
H       5.87       0.68      13.89
H       4.56       0.91      12.05
H      11.73       7.66      22.09
H       5.14       0.99       9.26
H       6.81       0.78       7.74
H       5.84       4.40       6.32
H       4.22       4.49       7.94
H       7.11       3.68       4.53
H       8.11       4.28       5.60
H      10.19       3.85       2.72
H       9.99       4.85       3.92
H      10.72       7.22      24.48
H      10.60       5.63       1.61
H       6.72       6.21       1.62
H       6.95       7.52      24.32
H       1.62       0.35       9.82
H       0.90       5.05       9.26
H      11.31       5.26       7.74
H       0.20       1.64       6.32
H       1.82       1.54       7.94
H      11.00       2.36       4.53
H      10.01       1.76       5.60
H       7.93       2.19       2.72
H       8.13       1.18       3.92
H       7.40      10.90      24.48
H       7.52       0.41       1.61
H      11.40      11.91       1.62
H      11.17      10.60      24.32
H       4.42       5.69       9.82
H       5.05       5.14       3.01
H       5.26       6.81       4.53
H       1.64       5.84       5.95
H       1.54       4.22       4.33
H       2.36       7.11       7.74
H       1.76       8.11       6.67
H       2.19      10.19       9.55
H       1.18       9.99       8.35
H      10.90      10.72      12.33
H       0.41      10.60      10.65
H      11.91       6.72      10.65
H      10.60       6.95      12.49
H       5.69       1.62       2.45
H       0.99       0.90       3.01
H       0.78      11.31       4.53
H       4.40       0.20       5.95
H       4.49       1.82       4.33
H       3.68      11.00       7.74
H       4.28      10.01       6.67
H       3.85       7.93       9.55
H       4.85       8.13       8.35
H       7.22       7.40      12.33
H       5.63       7.52      10.65
H       6.21      11.40      10.65
H       7.52      11.17      12.49
H       0.35       4.42       2.45
H       6.94      11.09      15.28
H       5.27      11.30      16.80
H       6.24       7.68      18.22
H       7.86       7.58      16.60
H       4.96       8.40      20.01
H       3.97       7.80      18.94
H       1.89       8.23      21.82
H       2.09       7.22      20.62
H       1.36       4.86       0.06
H       1.48       6.45      22.92
H       5.36       5.87      22.91
H       5.13       4.56       0.22
H      10.46      11.73      14.72
H      11.18       7.03      15.28
H       0.77       6.82      16.80
H      11.88      10.44      18.22
H      10.26      10.53      16.60
H       1.08       9.72      20.01
H       2.07      10.32      18.94
H       4.15       9.89      21.82
H       3.95      10.89      20.62
H       4.68       1.18       0.06
H       4.56      11.67      22.92
H       0.68       0.17      22.91
H       0.91       1.48       0.22
H       7.66       6.39      14.72
C       7.74       6.78      20.95
C       7.59       5.78      20.03
C       8.62       5.54      19.13
C       9.74       6.35      19.19
C       9.77       7.32      20.17
C       9.52       4.20      17.37
C      10.22       2.52      15.64
C       0.93       2.20      12.52
C      12.05       2.26      13.54
C      11.70       3.46      14.01
C       0.29       4.52      13.51
C       1.14       4.36      12.45
C      10.38      11.34      20.95
C      10.53       0.26      20.03
C       9.49       0.50      19.13
C       8.38      11.77      19.19
C       8.34      10.80      20.17
C       8.60       1.84      17.37
C       7.90       3.51      15.64
C       5.11       3.84      12.52
C       6.07       3.78      13.54
C       6.42       2.58      14.01
C       5.75       1.52      13.51
C       4.90       1.68      12.45
C       5.30       1.70       8.68
C       6.30       1.55       7.76
C       6.54       2.58       6.86
C       5.73       3.70       6.92
C       4.76       3.73       7.90
C       7.88       3.48       5.10
C       9.55       4.18       3.37
C       9.88       6.97       0.25
C       9.82       6.01       1.27
C       8.62       5.66       1.74
C       7.56       6.33       1.24
C       7.72       7.18       0.18
C       0.74       4.34       8.68
C      11.82       4.49       7.76
C      11.58       3.45       6.86
C       0.31       2.34       6.92
C       1.28       2.30       7.90
C      10.24       2.56       5.10
C       8.56       1.86       3.37
C       8.24      11.15       0.25
C       8.30       0.03       1.27
C       9.50       0.38       1.74
C      10.56      11.79       1.24
C      10.40      10.94       0.18
C       9.06       3.02      16.53
C       9.06       3.02       4.26
C       4.34       5.30       3.59
C       4.49       6.30       4.51
C       3.45       6.54       5.41
C       2.34       5.73       5.35
C       2.30       4.76       4.37
C       2.56       7.88       7.17
C       1.86       9.55       8.90
C      11.15       9.88      12.02
C       0.03       9.82      11.00
C       0.38       8.62      10.53
C      11.79       7.56      11.03
C      10.94       7.72      12.09
C       1.70       0.74       3.59
C       1.55      11.82       4.51
C       2.58      11.58       5.41
C       3.70       0.31       5.35
C       3.73       1.28       4.37
C       3.48      10.24       7.17
C       4.18       8.56       8.90
C       6.97       8.24      12.02
C       6.01       8.30      11.00
C       5.66       9.50      10.53
C       6.33      10.56      11.03
C       7.18      10.40      12.09
C       6.78      10.38      15.86
C       5.78      10.53      16.78
C       5.54       9.49      17.68
C       6.35       8.38      17.62
C       7.32       8.34      16.64
C       4.20       8.60      19.44
C       2.52       7.90      21.17
C       2.20       5.11      24.29
C       2.26       6.07      23.27
C       3.46       6.42      22.80
C       4.52       5.75      23.30
C       4.36       4.90      24.36
C      11.34       7.74      15.86
C       0.26       7.59      16.78
C       0.50       8.62      17.68
C      11.77       9.74      17.62
C      10.80       9.77      16.64
C       1.84       9.52      19.44
C       3.51      10.22      21.17
C       3.84       0.93      24.29
C       3.78      12.05      23.27
C       2.58      11.70      22.80
C       1.52       0.29      23.30
C       1.68       1.14      24.36
C       3.02       9.06       8.01
C       3.02       9.06      20.28
S       6.63       9.41      22.61
S      11.48       8.71      22.61
S       2.67       0.59      10.34
S       3.37       5.45      10.34
S       5.45       2.67       1.93
S       0.59       3.37       1.93
S       9.41      11.48      14.20
S       8.71       6.63      14.20
N       8.83       7.56      21.06
N       1.49       3.23      11.96
N       9.29      10.56      21.06
N       4.55       2.81      11.96
N       4.52       2.79       8.79
N       8.85       7.53      24.23
N       1.52       3.25       8.79
N       9.27      10.59      24.23
N       3.25       4.52       3.48
N      10.59       8.85      12.57
N       2.79       1.52       3.48
N       7.53       9.27      12.57
N       7.56       9.29      15.75
N       3.23       4.55       0.30
N      10.56       8.83      15.75
N       2.81       1.49       0.30
O       8.45       4.52      18.27
O      10.77       3.68      14.98
O       9.67       1.52      18.27
O       7.35       2.36      14.98
O       7.56       2.41       6.00
O       8.40       4.73       2.71
O      10.56       3.63       6.00
O       9.72       1.31       2.71
O       3.63       7.56       6.27
O       1.31       8.40       9.56
O       2.41      10.56       6.27
O       4.73       9.72       9.56
O       4.52       9.67      18.54
O       3.68       7.35      21.83
O       1.52       8.45      18.54
O       2.36      10.77      21.83
