13

O       1.25       5.05       2.98
C       3.39       3.13       0.77
C       3.73       3.12      -0.58
H       3.99       2.58       1.49
H       4.61       2.59      -0.95
C       1.54       4.57       0.22
C       2.29       3.89       1.20
C       1.97       4.02       2.64
N       3.01       3.78      -1.52
C       1.92       4.47      -1.11
H       0.69       5.17       0.51
H       1.36       4.97      -1.90
O       2.42       3.15       3.44
