13

H       3.67       3.89      18.59
H       3.00       4.09      21.00
C       0.96       5.94      18.33
C       0.63       5.95      19.67
N       1.35       5.29      20.62
C       2.82       4.50      18.88
C       2.07       5.17      17.89
C       2.39       5.05      16.45
O       1.93       5.92      15.65
C       2.44       4.59      20.21
O       3.11       4.01      16.11
H       0.37       6.49      17.60
H      -0.25       6.48      20.04
