13

C      -4.36       5.07      13.65
H      -2.39       2.09      15.02
H      -2.48       5.94      13.07
N      -5.04       4.03      14.20
C      -2.23       4.02      14.06
C      -0.72       4.05      14.08
H      -4.97       5.90      13.31
H      -4.90       2.14      15.03
C      -2.93       2.94      14.61
O      -0.16       4.85      13.27
O      -0.17       3.28      14.93
C      -2.98       5.09      13.54
C      -4.32       2.97      14.65
