13

H       6.60       0.40      13.13
H       3.93      -1.78      15.70
H       5.10      -3.89      14.99
H       7.68      -1.80      12.53
N       6.43      -2.93      13.74
O       3.57       0.71      15.71
C       5.40      -2.92      14.61
C       4.53       0.77      14.87
C       5.19      -0.52      14.48
C       6.25      -0.53      13.56
C       4.76      -1.75      15.00
O       5.01       1.82      14.33
C       6.84      -1.75      13.23
