12

C       7.36       1.85       0.80
C       6.57       0.59       0.88
C       6.31      -1.85       0.80
C       7.11      -0.59       0.88
H       5.94       0.61       0.13
H       6.03       0.65       1.68
H       7.74      -0.61       0.13
H       7.65      -0.65       1.68
O       8.59       1.89       1.04
O       6.73       2.88       0.45
O       5.09      -1.89       1.04
O       6.95      -2.88       0.45
