13

C       4.44       3.44       2.58
C       5.09       2.49       3.35
C       5.80       5.09       3.58
H       3.75       3.18       1.99
H       4.84       1.58       3.26
C       6.38       4.09       4.34
H       6.07       6.00       3.69
H       7.04       4.32       4.99
O       4.93       6.80       1.49
O       3.04       5.66       1.37
C       4.80       4.77       2.68
C       4.19       5.81       1.79
N       6.06       2.80       4.20
