13

C       3.34      11.84       2.88
N       1.43      12.82       3.93
C       0.73      11.76       3.56
H       3.25      13.58       3.90
C       1.26      10.70       2.80
H       4.26      11.89       2.67
C       3.22       9.61       1.61
H      -0.19      11.70       3.81
H       0.72       9.97       2.53
O       4.45       9.66       1.38
O       2.42       8.70       1.26
C       2.60      10.76       2.46
C       2.72      12.84       3.61
