13

C       0.78       0.35      11.82
C       0.16      -0.69      12.71
O       0.91      -1.68      13.01
O      -0.98      -0.53      13.13
C       0.41       1.68      11.92
C       1.06       2.63      11.15
N       2.03       2.32      10.30
C       1.77       0.03      10.92
C       2.36       1.04      10.16
H      -0.28       1.95      12.52
H       0.81       3.54      11.24
H       2.05      -0.87      10.81
H       3.01       0.80       9.51
