13

N       1.80      11.10      20.19
C       4.17      12.63      16.92
C       3.35      12.11      18.07
C       2.88      10.79      18.05
H       3.07      10.21      17.32
C       2.28      12.36      20.19
H       2.07      12.92      20.93
C       3.06      12.88      19.18
H       1.83       9.44      19.11
C       2.13      10.34      19.13
H       3.40      13.76      19.24
O       3.99      12.17      15.74
O       5.04      13.52      17.11
