440

Zn       6.65       8.94      12.89
Zn      -2.58       8.93       4.47
Zn       6.62       8.91       0.06
Zn       9.28       0.01       8.43
Zn       3.38       4.38       6.28
Zn      -5.79       4.47      14.70
Zn       9.88      13.46       6.28
Zn       5.83      -4.38      14.70
H      -9.63      10.25      14.22
H      -2.09       6.72       0.85
H      10.66      -3.60      15.80
H      -0.09       2.29       1.88
H      -1.05       3.67       3.70
H       9.51      -6.55      13.60
H       9.23      -5.78      15.17
H       9.23      -7.55      15.04
H       2.91       2.03       0.45
H       2.29       3.69       0.54
H      -3.25      -5.68      16.00
H       4.44       7.63      14.22
H      -3.12      11.12       0.86
H       7.86       3.66      15.81
H      -5.15      15.54       1.89
H      -4.16      14.18       3.70
H       9.00       6.62      13.59
H      -9.18       5.85      15.16
H      -9.19       7.62      15.03
H      10.35      15.80       0.45
H      10.95      14.14       0.55
H       3.28       5.74      16.00
H      -1.95      11.41       5.79
H       4.41       8.83       9.28
H       2.80       9.25       7.42
H      -0.41       9.48      10.27
H       1.18       8.95      12.11
H       0.30       7.31       5.20
H       1.13       7.26       6.77
H      -0.57       6.76       6.64
H      -1.51      12.27       8.83
H       0.26      12.18       8.94
H      -0.51      13.06       7.59
H      -3.22       6.45       5.80
H       8.88       9.06       9.27
H      10.48       8.61       7.41
H      -4.78       8.38      10.26
H      -6.36       8.93      12.09
H      -5.49      10.55       5.18
H      -6.31      10.61       6.75
H      -4.61      11.11       6.62
H      -3.70       5.58       8.83
H      -5.47       5.69       8.93
H      -4.71       4.81       7.58
H       8.85      10.81       0.16
H       5.97       1.41      10.61
H       4.39       2.00      12.43
H       4.33      -2.10      13.71
H       5.84      -2.70      11.83
H       2.11      -2.28      13.89
H       1.05      -1.13      13.06
H       0.60      -1.75      14.66
H       4.55       3.27      14.87
H       5.63       1.89      15.12
H       4.79       2.62      16.50
H       4.41       6.99       0.16
H      12.59      -1.38      10.62
H      -4.32      -1.95      12.46
H      -4.32       2.16      13.71
H      -5.83       2.73      11.82
H      -2.09       2.34      13.89
H      -1.04       1.18      13.06
H      -0.58       1.81      14.66
H      -4.50      -3.22      14.88
H      -5.59      -1.84      15.13
H      -4.75      -2.57      16.52
H      10.46       2.68       8.54
H       8.90       6.12       2.23
H       9.91       4.77       4.05
H       5.98       3.55       5.31
H       4.99       4.83       3.42
H       6.45       1.38       5.48
H       7.85       0.68       4.65
H       7.38       0.08       6.25
H      11.07       5.29       6.49
H       9.44       5.93       6.74
H      10.37       5.33       8.12
H       8.07      -2.66       8.55
H       4.34      11.71       2.22
H       3.34      13.06       4.05
H       7.28      14.27       5.29
H       8.27      12.97       3.41
H      12.07      -1.38       5.47
H      10.67      -0.69       4.63
H      11.14      -0.08       6.23
H       2.19      12.56       6.49
H       3.82      11.91       6.74
H       2.89      12.52       8.12
H       0.87       2.96       5.79
H       4.68       6.98       6.42
H      -3.33       3.32      11.74
H       3.17      10.87       0.30
H      -1.80       2.77       9.87
H       4.22       9.46       2.05
H      -0.70       6.92       9.56
H       0.34       7.81       2.99
H      -2.24       7.46      11.44
H      -0.67       9.18       1.21
H       1.91       5.20      10.33
H       1.67       6.64       9.33
H       3.04       5.56       9.00
H       0.97       5.10       3.92
H       2.40       4.49       3.08
H       1.45       5.83       2.38
H      -1.67       2.01       6.59
H      -2.15       3.61       5.97
H      -2.57       3.13       7.63
H       5.43       9.60       4.26
H       4.97       9.53       5.97
H       3.90      10.31       4.77
H      -5.16       7.27      14.21
H      -7.92       2.50      14.85
H       5.17       2.30       3.33
H       6.44       2.79       8.69
H       6.12       0.96       1.47
H       8.09       2.20      10.45
H      -2.78      16.56       1.20
H       8.54       6.39      11.39
H       1.50       0.09       3.07
H       6.94       6.96       9.61
H      -0.40      14.54       1.96
H      -1.85      14.37       0.97
H      -0.44      13.35       0.63
H      -7.16       6.57      12.32
H      -6.18       5.37      11.48
H      10.75       5.89      10.79
H       0.27      -7.85      14.98
H      -6.64       9.98      14.36
H      -1.06      -7.28      16.02
H       8.31       1.01      12.67
H       8.23       1.47      14.38
H       7.17       2.26      13.17
H      -0.87      -2.98       5.78
H       8.57      10.85       6.42
H       3.35      -3.25      11.74
H      10.06       6.98       0.30
H       1.81      -2.72       9.86
H       9.03       8.39       2.06
H      -4.51      10.94       9.60
H      12.92      10.01       3.00
H      -2.97      10.43      11.49
H      13.92       8.63       1.21
H      -1.89      -5.17      10.34
H      -6.88      11.20       9.36
H      -8.25      12.27       9.02
H      12.29      12.74       3.92
H      10.85      13.33       3.08
H      11.81      12.00       2.39
H       1.65      -1.99       6.58
H      -3.08      14.24       5.96
H       2.58      -3.11       7.62
H       7.83       8.24       4.26
H       8.29       8.30       5.97
H       9.36       7.53       4.77
H       5.20      -7.18      14.22
H       7.97      -2.41      14.84
H       8.10      15.52       3.31
H      12.09      -2.78       8.68
H       7.13      16.88       1.48
H      10.47      -2.16      10.45
H      16.05       1.27       1.19
H       4.73      11.49      11.42
H      -1.48      -0.10       3.04
H       6.31      10.88       9.62
H      13.65       3.31       1.97
H      15.11       3.47       0.98
H      13.70       4.49       0.64
H       7.20      -6.50      12.35
H       6.21      -5.30      11.51
H       2.52      11.99      10.81
H      -0.23       7.94      14.98
H       1.44       7.93      14.37
H       1.09       7.37      16.02
H      10.25      -0.95      12.65
H      10.33      -1.41      14.37
H      11.37      -2.21      13.16
C      -1.61       5.30       2.40
C      -1.65       5.75       1.07
C      11.17      -6.64      14.95
C      -1.16       4.94       0.04
C      -6.62      -6.02      16.02
C      -0.57       3.69       0.31
C      -5.27      -6.39      15.86
C      -0.54       3.25       1.64
C      -1.07       4.03       2.67
C      -2.07       6.18       3.53
C       9.71      -6.63      14.68
C      -4.07      -6.01      16.65
C      -3.60      12.54       2.40
C      -3.56      12.09       1.07
C       7.35       6.69      14.95
C      14.42      12.89       0.04
C       6.66       6.08      16.03
C      13.83      14.14       0.32
C       5.31       6.44      15.86
C      -4.69      14.58       1.65
C      -4.14      13.81       2.68
C      -3.12      11.67       3.53
C      -9.67       6.69      14.67
C       4.10       6.07      16.65
C       2.90       8.89      10.82
C       3.35       8.97       9.49
C      -0.24       8.88       6.55
C       2.45       9.21       8.45
C       0.14       9.72       7.62
C       1.08       9.42       8.72
C      -0.58      10.91       7.44
C       0.64       9.33      10.05
C       1.53       9.04      11.08
C       3.87       8.69      11.95
C       0.18       7.48       6.27
C      -0.59      12.17       8.24
C      -8.09       8.99      10.81
C       9.94       8.91       9.48
C      -4.94       8.98       6.54
C      10.84       8.66       8.44
C      -5.33       8.14       7.61
C      -6.28       8.45       8.70
C      -4.61       6.95       7.44
C      -5.83       8.54      10.03
C      -6.72       8.84      11.07
C      -9.06       9.19      11.94
C      -5.36      10.39       6.26
C      -4.62       5.69       8.23
C       6.03      -0.68      11.12
C       5.60       0.64      11.29
C       2.17      -0.28      14.69
C       4.73       0.98      12.32
C       3.38       0.35      14.33
C       4.27      -0.00      13.21
C       3.56       1.39      15.26
C       4.67      -1.34      13.02
C       5.53      -1.68      11.98
C       7.04      -1.04      10.08
C       1.45      -1.42      14.04
C       4.69       2.35      15.45
C      -5.98       0.71      11.12
C      -5.55      -0.61      11.30
C      -2.13       0.34      14.70
C      -4.68      -0.93      12.33
C      -3.35      -0.29      14.34
C      -4.23       0.06      13.23
C      -3.53      -1.33      15.27
C      -4.65       1.39      13.03
C      -5.50       1.71      11.98
C      11.51       1.07      10.07
C      -1.42       1.48      14.04
C      -4.65      -2.29      15.46
C       6.88       5.59       2.73
C       8.27       5.56       2.90
C       8.36       1.99       6.28
C       8.83       4.81       3.93
C       8.60       3.34       5.93
C       8.01       4.09       4.82
C       9.55       3.80       6.86
C       6.62       4.10       4.62
C       6.06       4.82       3.58
C       6.25       6.45       1.68
C       7.46       0.98       5.63
C      10.15       5.16       7.06
C       6.37      12.24       2.72
C       4.98      12.27       2.90
C      10.17      -1.98       6.28
C       4.42      13.02       3.93
C       4.67      14.50       5.93
C       5.25      13.74       4.82
C       3.73      14.04       6.86
C       6.64      13.73       4.61
C       7.19      12.99       3.57
C       7.00      11.37       1.68
C      11.06      -0.98       5.62
C       3.12      12.69       7.06
C      -2.89       5.43      11.71
C       1.19      10.12       0.65
C      -2.76       4.10      11.26
C       2.57      10.19       0.90
C       1.14       4.79       8.38
C       2.69       6.39       4.04
C      -1.91       3.80      10.20
C       3.15       9.41       1.89
C      -0.24       4.46       8.48
C       2.96       7.74       3.74
C      -1.15       4.81       9.57
C       2.36       8.54       2.67
C      -0.52       3.67       7.35
C       3.89       8.16       4.72
C      -1.28       6.13      10.04
C       0.98       8.46       2.40
C      -2.14       6.44      11.09
C       0.40       9.23       1.40
C      -3.84       5.74      12.82
C      -6.06       2.11      16.42
C       1.98       5.59       9.31
C       1.83       5.40       3.32
C      -1.80       3.07       6.86
C       4.58       9.46       4.94
C       3.27       1.29       3.31
C       6.58       4.91       9.04
C       4.58       1.53       2.85
C       6.90       3.57       9.29
C      -0.23      15.39       0.00
C      -7.91       4.56      12.46
C       5.11       0.78       1.81
C       7.82       3.24      10.29
C      -0.30      16.80       0.10
C       9.36       3.90      12.15
C       4.35      -0.24       1.19
C       8.43       4.24      11.07
C      -6.23       8.42      15.76
C       9.22       2.90      13.13
C       3.05      -0.48       1.66
C       8.10       5.59      10.80
C       2.51       0.27       2.71
C       7.20       5.92       9.80
C       2.70       2.12       4.41
C       5.57       5.28       8.01
C      -0.75      14.36       0.94
C      -7.22       5.65      11.72
C      -0.78      -8.02      15.26
C       8.18       1.86      13.35
C       2.91      -5.36      11.72
C      12.06       7.71       0.65
C       2.77      -4.04      11.26
C      10.68       7.64       0.90
C      -6.36      13.05       8.38
C      10.58      11.44       4.05
C       1.92      -3.75      10.20
C      10.10       8.43       1.90
C       0.25      -4.43       8.49
C      10.30      10.09       3.75
C       1.16      -4.76       9.59
C      10.90       9.29       2.68
C       0.53      -3.66       7.35
C       9.37       9.67       4.73
C      -3.94      11.74      10.07
C      12.28       9.37       2.41
C      -3.07      11.44      11.12
C      12.85       8.59       1.40
C       3.88      -5.67      12.83
C       6.08      -2.04      16.42
C      -7.20      12.25       9.32
C      11.43      12.42       3.32
C       1.80      -3.05       6.85
C       8.68       8.37       4.95
C      15.23      -1.29       3.29
C       6.68      12.92       9.04
C       8.69      16.30       2.84
C      11.62      -3.55       9.29
C      13.48       2.46       0.01
C       7.96      -4.49      12.46
C      13.39      -0.76       1.80
C      10.71      -3.21      10.29
C      13.55       1.04       0.11
C       9.17      -3.84      12.15
C      14.15       0.26       1.19
C      10.10      -4.20      11.08
C       6.26      -8.33      15.77
C       9.32      -2.83      13.12
C      15.46       0.49       1.65
C      10.41      -5.55      10.81
C      16.00      -0.28       2.69
C       6.06      11.93       9.80
C      15.80      -2.13       4.39
C       7.68      12.54       7.99
C      14.01       3.49       0.95
C       7.25      -5.59      11.75
C       0.82       8.11      15.26
C      10.37      -1.80      13.34
N      -5.21      -7.17      14.76
N      12.04      -7.33      14.19
N       5.25       7.21      14.75
N       6.48       7.37      14.18
N      -1.33      10.75       6.33
N      -1.13       9.53       5.77
N      -3.84       7.12       6.34
N      -4.03       8.34       5.77
N       2.50       1.36      16.08
N       1.65       0.36      15.76
N      -2.46      -1.31      16.09
N      -1.60      -0.31      15.76
N       9.84       2.77       7.67
N       9.13       1.66       7.34
N       8.69      -2.75       7.68
N       9.41      -1.65       7.34
N       0.62       3.56       6.65
N       4.09       7.11       5.54
N       1.64       4.22       7.26
N       3.38       6.03       5.15
N      -5.80       7.34      15.06
N      -8.20       3.01      13.95
N      -6.15       6.18      15.68
N      -7.37       4.01      13.56
N      -5.85      14.25       6.64
N       9.16      10.72       5.54
N      -6.87      13.60       7.26
N       9.88      11.80       5.15
N       5.84      -7.26      15.07
N       8.25      -2.93      13.95
N       6.18      -6.09      15.69
N       7.42      -3.93      13.57
O      -2.30       5.67       4.65
O      -2.16       7.44       3.24
O      -2.88      12.19       4.65
O      -3.02      10.41       3.24
O       3.44       8.32      13.07
O       5.11       8.97      11.67
O      -8.62       9.57      13.07
O       8.19       8.91      11.67
O       7.68      -0.04       9.57
O       7.21      -2.26       9.79
O      10.88       0.05       9.56
O      11.33       2.28       9.78
O       7.03       7.37       1.20
O       5.04       6.25       1.37
O       6.21      10.47       1.17
O       8.21      11.53       1.40
O      -4.25       4.72      13.50
O      -7.29       1.94      16.16
O      -4.18       6.94      13.01
O      -5.29       3.01      15.89
O       3.56       2.82       5.08
O       5.39       6.50       7.73
O       1.45       2.11       4.60
O       4.92       4.28       7.49
O       4.30      -4.64      13.49
O       7.31      -1.89      16.16
O       4.23      -6.87      13.02
O       5.30      -2.93      15.88
O       9.70      14.99       5.04
O       7.85      11.32       7.72
O      -1.44      -2.11       4.59
O       8.33      13.53       7.46
