25

Cd       1.03       4.45       1.78
Cd       0.04       5.87      -1.78
Cd       1.72       2.30       4.90
C       1.47       1.39       1.73
C       1.61       7.00       0.91
C       3.58       4.39       3.20
C      -1.20       3.52       4.24
C       1.96       3.22       8.07
C      -0.54       3.32      -0.91
C      -0.15       0.22       6.59
C       4.63       1.08       5.55
O       1.09       1.29       2.94
O       1.83       2.44       1.10
O       1.25       6.75       2.10
O      -0.84       3.90       3.10
O      -0.50       3.02       5.19
O       2.40       4.18       3.71
O       1.62       6.12      -0.02
O       2.34       3.32       6.86
O      -0.75       7.88      -1.10
O      -0.17       3.57      -2.10
O       1.91       6.42      -3.10
O       3.93       1.59       4.61
O       1.03       0.43       6.09
O      -0.55       4.20       0.02
