128

Cr      -2.84       8.77      14.15
Cr       9.13       2.02       4.72
Cr       3.78       8.14      14.15
Cr       2.51       2.65       4.72
Cr       5.90       5.55      14.15
Cr       0.39       5.24       4.72
H      -0.42       8.48       8.62
H       6.71       2.31      10.25
H       6.71       2.31      18.06
H      -0.42       8.48       0.81
H       0.18       6.33       7.76
H       6.11       4.46      11.11
H       6.11       4.46      17.20
H       0.18       6.33       1.67
H       2.94       8.40      11.15
H       3.35       2.39       7.72
H       3.35       2.39       1.72
H       2.94       8.40      17.15
H       8.21       3.27       0.76
H      -1.92       7.52      18.11
H      -1.92       7.52      10.19
H       8.21       3.27       8.67
H       9.12       0.68       1.09
H      -2.83      10.12      17.78
H      -2.83      10.12      10.52
H       9.12       0.68       8.35
H      -1.69      10.60       1.01
H       7.98       0.20      17.86
H       7.98       0.20      10.44
H      -1.69      10.60       8.43
C       5.15       9.96      12.17
C       1.14       0.83       6.70
C       1.14       0.83       2.74
C       5.15       9.96      16.13
C       2.02       6.08       8.92
C       4.27       4.71       9.95
C       4.27       4.71      18.35
C       2.02       6.08       0.51
C      -1.75       6.61      17.54
C       8.04       4.18       1.33
C       8.04       4.18       8.11
C      -1.75       6.61      10.76
C      -1.68       5.43      18.15
C       7.97       5.36       0.72
C       7.97       5.36       8.72
C      -1.68       5.43      10.15
C       5.17      10.61      17.44
C       1.12       0.18       1.43
C       1.12       0.18       8.01
C       5.17      10.61      10.86
C       6.29      10.55      18.18
C       0.00       0.24       0.69
C       0.00       0.24       8.75
C       6.29      10.55      10.12
C       4.15       6.08      12.03
C       2.14       4.71       6.84
C       2.14       4.71       2.59
C       4.15       6.08      16.27
C      -1.99       6.74      12.17
C       8.28       4.05       6.70
C       8.28       4.05       2.74
C      -1.99       6.74      16.13
C       2.53       4.94       8.25
C       3.76       5.86      10.61
C       3.76       5.86      17.69
C       2.53       4.94       1.18
C       0.84       6.75       8.49
C       5.45       4.04      10.38
C       5.45       4.04      17.92
C       0.84       6.75       0.94
C       0.46       7.99       9.00
C       5.82       2.80       9.87
C       5.82       2.80      18.44
C       0.46       7.99       0.43
C       1.21       8.55      10.01
C       5.08       2.24       8.85
C       5.08       2.24       0.58
C       1.21       8.55      18.29
C       2.34       7.88      10.48
C       3.95       2.91       8.39
C       3.95       2.91       1.04
C       2.34       7.88      17.83
C       2.71       6.61      10.02
C       3.58       4.19       8.85
C       3.58       4.18       0.58
C       2.71       6.61      18.28
C       0.79       9.79      10.63
C       5.50       1.01       8.24
C       5.50       1.01       1.19
C       0.79       9.79      17.67
C       7.50       6.52       1.46
C      -1.21       4.27      17.41
C      -1.21       4.27      10.89
C       7.50       6.52       7.98
N       0.44      10.77      11.13
N       5.85       0.02       7.74
N       5.85       0.02       1.69
N       0.44      10.77      17.17
N       7.12       7.45       2.04
N      -0.83       3.35      16.83
N      -0.83       3.35      11.48
N       7.12       7.45       7.39
O      -1.76       7.90      12.61
O       8.05       2.89       6.26
O       8.05       2.89       3.17
O      -1.76       7.90      15.69
O       6.27       9.72      12.73
O       0.02       1.07       6.14
O       0.02       1.07       3.29
O       6.27       9.72      15.58
O       4.04       9.53      12.63
O       2.25       1.26       6.24
O       2.25       1.26       3.19
O       4.04       9.53      15.68
O       3.37       6.83      12.74
O       2.92       3.96       6.12
O       2.92       3.96       3.31
O       3.37       6.83      15.56
O       4.56       5.02      12.63
O       1.73       5.77       6.24
O       1.73       5.77       3.20
O       4.56       5.02      15.67
O       7.23       5.90      12.73
O      -0.94       4.89       6.14
O      -0.94       4.89       3.29
O       7.23       5.90      15.58
O       5.63       7.48      14.15
O       0.66       3.31       4.72
