13

C       2.99       5.44       5.11
C       1.91       4.74       4.55
C       1.09       5.39       3.62
C       1.35       6.73       3.32
H       3.68       4.97       5.80
H       1.72       3.71       4.81
C       2.42       7.38       3.94
C      -0.05       4.70       2.92
H       0.72       7.25       2.60
O      -0.44       3.56       3.33
O      -0.57       5.32       1.93
H       2.65       8.42       3.76
N       3.22       6.73       4.81
