784

C       0.03       1.84      46.83
C       8.89       2.56      47.41
C       8.90       3.99      47.41
C       0.03       4.67      46.82
C       1.12       3.98      46.24
C       1.12       2.56      46.25
C       7.83       1.83       0.31
C       2.18       1.82      45.67
C       0.03       0.41      46.84
C       8.89      47.38      47.42
C       8.90      45.95      47.43
C       0.03      45.26      46.85
C       1.12      45.95      46.27
C       1.12      47.37      46.26
C       7.83       0.43       0.31
C       2.18       0.42      45.68
C       2.16       4.73      45.73
C       2.17      45.19      45.77
C       7.85      45.20       0.25
C       7.85       4.74       0.22
C       0.03      24.25      46.84
C       8.89      23.53      46.26
C       8.90      22.10      46.26
C       0.03      21.42      46.85
C       1.12      22.11      47.43
C       1.12      23.53      47.42
C       7.83      24.26      45.68
C       2.18      24.27       0.31
C       0.03      25.68      46.83
C       8.89      26.40      46.25
C       8.90      27.83      46.24
C       0.03      28.52      46.82
C       1.12      27.83      47.41
C       1.12      26.41      47.41
C       7.83      25.66      45.67
C       2.18      25.67       0.31
C       2.16      21.36       0.25
C       2.17      28.58       0.22
C       7.85      28.58      45.73
C       7.85      21.35      45.77
C       9.77      13.29      35.63
C       8.72      12.60      36.32
C       8.61      12.70      37.73
C       9.50      13.54      38.44
C       0.58      14.25      37.78
C       0.73      14.10      36.37
C       7.80      11.85      35.55
C       1.77      14.76      35.67
C       9.88      13.21      34.21
C       8.91      12.48      33.45
C       8.99      12.45      32.03
C       0.11      13.09      31.38
C       1.10      13.79      32.11
C       1.00      13.88      33.52
C       7.88      11.80      34.16
C       1.91      14.64      34.29
C       1.26      15.20      38.50
C       2.18      14.32      31.40
C       7.98      11.92      31.25
C       7.59      12.12      38.47
C       9.77      12.80      10.35
C       8.73      13.49       9.67
C       8.62      13.39       8.25
C       9.50      12.55       7.54
C       0.58      11.85       8.21
C       0.74      11.99       9.61
C       7.80      14.24      10.43
C       1.77      11.33      10.31
C       9.88      12.88      11.78
C       8.91      13.62      12.53
C       8.99      13.65      13.95
C       0.11      13.00      14.60
C       1.10      12.30      13.88
C       1.00      12.22      12.46
C       7.88      14.29      11.83
C       1.91      11.45      11.70
C       1.26      10.89       7.48
C       2.18      11.78      14.58
C       7.98      14.17      14.74
C       7.60      13.97       7.51
C       0.24      36.65      10.35
C       1.29      37.34       9.67
C       1.40      37.24       8.25
C       0.51      36.40       7.54
C       9.43      35.69       8.21
C       9.28      35.83       9.61
C       2.21      38.09      10.43
C       8.24      35.17      10.31
C       0.13      36.73      11.78
C       1.10      37.46      12.53
C       1.02      37.49      13.95
C       9.90      36.85      14.60
C       8.91      36.14      13.88
C       9.02      36.06      12.46
C       2.13      38.13      11.83
C       8.10      35.30      11.70
C       8.75      34.73       7.48
C       7.83      35.62      14.58
C       2.03      38.02      14.74
C       2.41      37.82       7.51
C       0.24      37.13      35.63
C       1.29      36.44      36.32
C       1.40      36.54      37.74
C       0.51      37.38      38.44
C       9.43      38.09      37.78
C       9.28      37.95      36.37
C       2.21      35.69      35.56
C       8.24      38.61      35.67
C       0.13      37.05      34.21
C       1.10      36.32      33.46
C       1.02      36.29      32.04
C       9.90      36.93      31.38
C       8.91      37.63      32.10
C       9.02      37.72      33.52
C       2.13      35.64      34.16
C       8.10      38.48      34.29
C       8.75      39.05      38.50
C       7.83      38.16      31.40
C       2.03      35.76      31.25
C       2.41      35.96      38.47
C       9.86      25.67      22.92
C       8.89      26.33      23.73
C       8.65      27.72      23.57
C       9.38      28.45      22.61
C       0.41      27.82      21.80
C       0.64      26.42      21.95
C       8.19      25.56      24.70
C       1.59      25.75      21.14
C       0.15      24.26      23.07
C       9.37      23.51      24.04
C       9.61      22.12      24.18
C       0.63      21.49      23.37
C       1.36      22.21      22.41
C       1.12      23.61      22.25
C       8.42      24.19      24.84
C       1.82      24.38      21.29
C       1.01      28.58      20.82
C       2.36      21.54      21.71
C       9.00      21.36      25.17
C       7.65      28.39      24.27
C       9.86       0.42      23.06
C       8.89      47.45      22.25
C       8.65      46.06      22.41
C       9.39      45.33      23.37
C       0.41      45.96      24.18
C       0.64      47.36      24.04
C       8.19       0.53      21.29
C       1.59       0.34      24.84
C       0.15       1.83      22.92
C       9.37       2.58      21.95
C       9.60       3.98      21.81
C       0.63       4.60      22.61
C       1.36       3.88      23.58
C       1.12       2.48      23.74
C       8.42       1.90      21.14
C       1.82       1.72      24.70
C       1.01      45.20      25.16
C       2.36       4.55      24.27
C       9.00       4.74      20.82
C       7.65      45.39      21.71
C       2.82      43.66      44.03
C       4.21      43.56      44.24
C       5.02      42.73      43.44
C       4.42      41.97      42.39
C       3.01      42.05      42.17
C       2.24      42.90      43.00
C       5.23      41.15      41.55
C       5.48      39.78      41.90
C       6.32      39.01      41.07
C       6.93      39.54      39.92
C       6.64      40.88      39.57
C       5.81      41.70      40.37
C       4.92      39.11      43.10
C       5.61      43.10      39.90
C       2.28      41.31      41.11
C       6.48      42.72      43.76
C       2.82      30.12       1.95
C       4.21      30.22       1.74
C       5.02      31.05       2.54
C       4.42      31.81       3.59
C       3.01      31.72       3.81
C       2.24      30.88       2.99
C       5.23      32.63       4.43
C       5.48      33.99       4.08
C       6.32      34.77       4.91
C       6.93      34.24       6.06
C       6.64      32.90       6.41
C       5.81      32.08       5.61
C       4.92      34.67       2.88
C       5.61      30.68       6.08
C       2.28      32.47       4.88
C       6.48      31.06       2.23
C       2.88      15.96      29.79
C       4.26      15.70      29.70
C       5.12      16.48      28.89
C       4.57      17.56      28.14
C       3.17      17.83      28.21
C       2.35      17.02      29.04
C       5.42      18.37      27.32
C       5.64      18.04      25.95
C       6.50      18.85      25.18
C       7.16      19.96      25.72
C       6.91      20.29      27.07
C       6.06      19.52      27.88
C       5.02      16.87      25.26
C       5.88      19.98      29.29
C       2.48      18.93      27.47
C       6.56      16.10      28.89
C       2.88      10.13      16.19
C       4.26      10.39      16.28
C       5.12       9.61      17.10
C       4.57       8.53      17.85
C       3.17       8.26      17.78
C       2.35       9.07      16.95
C       5.42       7.72      18.66
C       5.64       8.06      20.03
C       6.49       7.24      20.81
C       7.16       6.13      20.27
C       6.91       5.80      18.92
C       6.06       6.57      18.10
C       5.02       9.22      20.72
C       5.88       6.11      16.69
C       2.48       7.16      18.52
C       6.56       9.99      17.10
C       7.17      29.99      43.91
C       5.78      30.06      44.09
C       4.95      30.85      43.26
C       5.55      31.60      42.20
C       6.96      31.54      42.00
C       7.75      30.73      42.86
C       4.74      32.41      41.35
C       4.52      33.79      41.68
C       3.72      34.57      40.82
C       3.13      34.04      39.65
C       3.34      32.68      39.36
C       4.15      31.85      40.18
C       5.06      34.47      42.88
C       4.31      30.44      39.75
C       7.70      32.28      40.93
C       3.49      30.84      43.56
C       7.17      43.79       2.08
C       5.78      43.72       1.89
C       4.95      42.93       2.72
C       5.55      42.18       3.78
C       6.96      42.24       3.98
C       7.75      43.05       3.13
C       4.74      41.36       4.63
C       4.52      39.99       4.31
C       3.72      39.21       5.17
C       3.13      39.74       6.34
C       3.34      41.10       6.63
C       4.15      41.92       5.80
C       5.06      39.31       3.10
C       4.31      43.34       6.23
C       7.70      41.50       5.05
C       3.49      42.94       2.42
C       7.26      10.07      29.94
C       5.86      10.24      29.96
C       5.00       9.47      29.14
C       5.56       8.49      28.27
C       6.98       8.28      28.26
C       7.80       9.08      29.10
C       4.71       7.71      27.43
C       4.36       8.19      26.13
C       3.47       7.44      25.34
C       2.94       6.21      25.79
C       3.30       5.74      27.06
C       4.18       6.47      27.90
C       4.86       9.47      25.55
C       4.47       5.88      29.24
C       7.67       7.28      27.40
C       3.54       9.75      29.26
C       7.26      16.02      16.05
C       5.86      15.85      16.03
C       5.00      16.62      16.84
C       5.56      17.61      17.71
C       6.98      17.81      17.73
C       7.79      17.01      16.89
C       4.71      18.38      18.56
C       4.36      17.90      19.85
C       3.47      18.65      20.65
C       2.94      19.88      20.20
C       3.30      20.35      18.92
C       4.18      19.62      18.09
C       4.86      16.62      20.44
C       4.47      20.21      16.75
C       7.67      18.81      18.58
C       3.54      16.34      16.73
C       7.20       6.27       1.95
C       5.80       6.37       1.74
C       4.99       7.21       2.54
C       5.59       7.97       3.59
C       7.00       7.88       3.81
C       7.77       7.03       2.99
C       4.78       8.79       4.43
C       4.53      10.15       4.08
C       3.70      10.93       4.91
C       3.09      10.40       6.06
C       3.37       9.06       6.41
C       4.20       8.24       5.61
C       5.10      10.83       2.88
C       4.40       6.84       6.08
C       7.73       8.62       4.88
C       3.53       7.21       2.23
C       7.20      19.82      44.03
C       5.80      19.72      44.24
C       4.99      18.88      43.44
C       5.59      18.12      42.39
C       7.00      18.21      42.17
C       7.77      19.06      43.00
C       4.78      17.30      41.55
C       4.53      15.94      41.90
C       3.69      15.16      41.07
C       3.09      15.70      39.92
C       3.37      17.03      39.57
C       4.20      17.85      40.37
C       5.10      15.26      43.10
C       4.40      19.25      39.90
C       7.73      17.47      41.10
C       3.53      18.88      43.76
C       7.13      33.98      16.19
C       5.75      34.24      16.28
C       4.89      33.46      17.09
C       5.44      32.38      17.85
C       6.84      32.10      17.77
C       7.66      32.92      16.95
C       4.59      31.56      18.66
C       4.37      31.90      20.03
C       3.52      31.09      20.81
C       2.85      29.97      20.26
C       3.10      29.64      18.91
C       3.96      30.42      18.10
C       4.99      33.07      20.72
C       4.13      29.96      16.69
C       7.53      31.01      18.51
C       3.45      33.83      17.09
C       7.13      39.80      29.79
C       5.75      39.54      29.70
C       4.89      40.32      28.89
C       5.45      41.40      28.14
C       6.85      41.67      28.21
C       7.66      40.86      29.03
C       4.60      42.22      27.32
C       4.37      41.88      25.95
C       3.52      42.69      25.17
C       2.86      43.80      25.72
C       3.10      44.14      27.07
C       3.96      43.36      27.88
C       4.99      40.71      25.26
C       4.13      43.82      29.29
C       7.53      42.77      27.47
C       3.45      39.95      28.89
C       2.84      19.95       2.08
C       4.24      19.88       1.89
C       5.06      19.08       2.72
C       4.46      18.33       3.78
C       3.05      18.40       3.98
C       2.27      19.21       3.13
C       5.27      17.52       4.63
C       5.49      16.15       4.31
C       6.30      15.36       5.17
C       6.88      15.90       6.34
C       6.67      17.26       6.63
C       5.86      18.08       5.81
C       4.95      15.47       3.10
C       5.70      19.50       6.24
C       2.31      17.66       5.05
C       6.52      19.09       2.42
C       2.84       6.14      43.91
C       4.24       6.21      44.09
C       5.06       7.01      43.26
C       4.46       7.76      42.20
C       3.05       7.70      42.00
C       2.27       6.88      42.86
C       5.27       8.57      41.35
C       5.50       9.94      41.68
C       6.30      10.73      40.81
C       6.88      10.19      39.65
C       6.67       8.83      39.36
C       5.86       8.01      40.18
C       4.95      10.62      42.88
C       5.70       6.59      39.75
C       2.32       8.43      40.93
C       6.52       7.00      43.56
C       2.75      39.87      16.05
C       4.16      39.70      16.03
C       5.01      40.47      16.84
C       4.45      41.45      17.71
C       3.03      41.65      17.73
C       2.22      40.86      16.89
C       5.30      42.23      18.55
C       5.65      41.74      19.85
C       6.54      42.50      20.65
C       7.07      43.72      20.20
C       6.71      44.19      18.92
C       5.83      43.47      18.09
C       5.15      40.47      20.44
C       5.54      44.06      16.75
C       2.34      42.66      18.58
C       6.47      40.18      16.73
C       2.76      33.91      29.94
C       4.16      34.08      29.96
C       5.02      33.31      29.14
C       4.45      32.33      28.27
C       3.04      32.13      28.26
C       2.22      32.92      29.10
C       5.30      31.55      27.43
C       5.65      32.04      26.13
C       6.54      31.28      25.33
C       7.07      30.06      25.78
C       6.71      29.59      27.06
C       5.83      30.31      27.90
C       5.15      33.32      25.54
C       5.54      29.72      29.23
C       2.34      31.12      27.40
C       6.47      33.60      29.26
H       0.03       5.70      46.82
H       0.03      44.23      46.86
H       7.04      47.65       0.75
H       7.04       2.30       0.75
H       2.97      47.64      45.24
H       2.97       2.29      45.23
H       3.03       4.71      46.21
H       3.05      45.28      46.20
H       6.98      45.22      47.46
H       6.96       4.66      47.47
H       0.03      20.39      46.86
H       0.03      29.54      46.82
H       7.04      26.13      45.23
H       7.04      23.79      45.24
H       2.97      26.14       0.75
H       2.97      23.80       0.75
H       3.03      21.38      47.46
H       3.06      28.50      47.47
H       6.98      28.56      46.21
H       6.96      21.44      46.20
H       9.37      13.67      39.45
H       0.17      13.05      30.36
H       7.18      11.25      33.66
H       7.03      11.34      36.00
H       2.67      15.15      33.84
H       2.45      15.34      36.17
H       0.93      16.14      38.46
H       3.08      13.97      31.63
H       7.16      12.46      31.13
H       6.83      12.69      38.76
H       9.38      12.42       6.53
H       0.17      13.04      15.63
H       7.18      14.84      12.32
H       7.04      14.75       9.98
H       2.67      10.94      12.14
H       2.46      10.75       9.82
H       0.93       9.96       7.53
H       3.08      12.12      14.36
H       7.16      13.63      14.85
H       6.84      13.40       7.22
H       0.64      36.26       6.53
H       9.84      36.88      15.63
H       2.83      38.69      12.32
H       2.98      38.60       9.98
H       7.34      34.78      12.14
H       7.56      34.59       9.82
H       9.08      33.80       7.53
H       6.93      35.96      14.36
H       2.86      37.48      14.85
H       3.18      37.25       7.23
H       0.64      37.52      39.45
H       9.84      36.90      30.36
H       2.83      35.09      33.66
H       2.98      35.18      36.00
H       7.34      39.00      33.84
H       7.56      39.19      36.17
H       9.08      39.98      38.46
H       6.93      37.82      31.62
H       2.86      36.30      31.14
H       3.18      36.53      38.76
H       9.19      29.45      22.47
H       0.83      20.49      23.51
H       7.88      23.69      25.55
H       7.50      25.99      25.32
H       2.51      23.95      20.67
H       2.13      26.24      20.43
H       0.62      28.56      19.90
H       3.29      21.88      21.78
H       9.39      21.37      26.08
H       6.72      28.05      24.21
H       9.19      44.33      23.51
H       0.82       5.60      22.48
H       7.88       2.40      20.43
H       7.50       0.10      20.67
H       2.51       2.14      25.32
H       2.13      47.54      25.55
H       0.63      45.22      26.08
H       3.29       4.21      24.21
H       9.39       4.72      19.91
H       6.72      45.73      21.78
H       1.23      42.98      42.84
H       6.51      38.03      41.32
H       7.05      41.26      38.72
H       4.64      44.12      44.98
H       4.28      39.75      43.71
H       5.73      38.76      43.74
H       4.32      38.25      42.79
H       4.96      43.69      40.54
H       5.16      43.09      38.90
H       6.57      43.61      39.85
H       1.52      40.68      41.56
H       2.92      40.67      40.50
H       1.80      42.02      40.43
H       6.89      43.73      43.65
H       7.07      42.06      43.12
H       6.63      42.40      44.79
H       1.23      30.80       3.15
H       6.51      35.75       4.66
H       7.05      32.51       7.27
H       4.65      29.66       1.00
H       4.28      34.03       2.27
H       5.73      35.02       2.24
H       4.32      35.53       3.19
H       4.96      30.09       5.44
H       5.16      30.69       7.08
H       6.57      30.17       6.14
H       1.52      33.10       4.42
H       2.92      33.11       5.48
H       1.79      31.76       5.55
H       6.89      30.05       2.34
H       7.07      31.72       2.87
H       6.63      31.38       1.20
H       1.35      17.21      29.09
H       6.66      18.61      24.19
H       7.36      21.13      27.46
H       4.66      14.93      30.24
H       4.37      16.27      25.90
H       5.80      16.21      24.89
H       4.42      17.22      24.42
H       5.21      19.36      29.88
H       5.48      20.99      29.30
H       6.85      19.98      29.80
H       1.72      18.51      26.82
H       3.15      19.53      26.85
H       2.00      19.60      28.18
H       6.96      16.18      29.90
H       7.18      16.73      28.25
H       6.67      15.07      28.55
H       1.35       8.88      16.89
H       6.65       7.48      21.80
H       7.36       4.96      18.53
H       4.66      11.16      15.75
H       4.37       9.82      20.08
H       5.80       9.88      21.10
H       4.42       8.88      21.57
H       5.21       6.74      16.11
H       5.48       5.10      16.69
H       6.85       6.11      16.19
H       1.72       7.58      19.17
H       3.15       6.57      19.13
H       2.00       6.49      17.80
H       6.96       9.91      16.08
H       7.18       9.36      17.74
H       6.67      11.02      17.44
H       8.76      30.67      42.71
H       3.53      35.55      41.06
H       2.90      32.28      38.52
H       5.34      29.51      44.84
H       5.67      33.82      43.52
H       4.24      34.85      43.49
H       5.69      35.31      42.58
H       4.94      29.84      40.41
H       4.75      30.40      38.75
H       3.33      29.95      39.71
H       8.43      32.94      41.39
H       7.05      32.88      40.29
H       8.22      31.56      40.29
H       3.11      29.82      43.47
H       2.90      31.47      42.90
H       3.33      31.19      44.59
H       8.76      43.11       3.27
H       3.53      38.23       4.93
H       2.90      41.50       7.46
H       5.34      44.27       1.15
H       5.67      39.96       2.47
H       4.24      38.93       2.49
H       5.69      38.47       3.41
H       4.94      43.93       5.57
H       4.75      43.38       7.23
H       3.33      43.83       6.27
H       8.43      40.84       4.60
H       7.05      40.90       5.69
H       8.22      42.21       5.70
H       3.11      43.96       2.51
H       2.90      42.30       3.08
H       3.33      42.59       1.40
H       8.81       8.94      29.09
H       3.20       7.78      24.41
H       2.90       4.86      27.39
H       5.45      10.93      30.59
H       5.55      10.01      26.19
H       4.01      10.13      25.34
H       5.38       9.26      24.61
H       5.15       6.47      29.84
H       4.92       4.89      29.11
H       3.54       5.77      29.80
H       8.38       7.78      26.75
H       7.00       6.70      26.78
H       8.22       6.58      28.04
H       3.21       9.59      30.29
H       2.91       9.13      28.61
H       3.35      10.80      28.99
H       8.81      17.15      16.90
H       3.20      18.31      21.58
H       2.90      21.23      18.60
H       5.45      15.16      15.39
H       5.55      16.08      19.79
H       4.01      15.96      20.65
H       5.38      16.83      21.38
H       5.15      19.62      16.14
H       4.92      21.20      16.88
H       3.54      20.32      16.19
H       8.38      18.31      19.24
H       7.00      19.40      19.21
H       8.22      19.51      17.95
H       3.21      16.50      15.70
H       2.91      16.96      17.37
H       3.35      15.29      16.99
H       8.78       6.96       3.15
H       3.50      11.91       4.66
H       2.96       8.67       7.27
H       5.37       5.82       1.00
H       5.74      10.19       2.27
H       4.28      11.18       2.24
H       5.69      11.69       3.19
H       5.05       6.25       5.44
H       4.85       6.85       7.08
H       3.44       6.33       6.13
H       8.50       9.26       4.42
H       7.09       9.27       5.48
H       8.22       7.91       5.55
H       3.13       6.20       2.34
H       2.94       7.87       2.86
H       3.38       7.54       1.19
H       8.78      19.13      42.84
H       3.50      14.18      41.32
H       2.96      17.42      38.72
H       5.37      20.27      44.98
H       5.74      15.90      43.71
H       4.28      14.91      43.74
H       5.69      14.40      42.79
H       5.05      19.84      40.54
H       4.85      19.24      38.90
H       3.44      19.76      39.85
H       8.49      16.83      41.56
H       7.09      16.82      40.50
H       8.22      18.18      40.43
H       3.13      19.89      43.65
H       2.94      18.22      43.12
H       3.38      18.55      44.79
H       8.67      32.72      16.89
H       3.36      31.32      21.79
H       2.65      28.81      18.52
H       5.35      35.01      15.75
H       5.64      33.66      20.08
H       4.21      33.73      21.10
H       5.59      32.72      21.56
H       4.80      30.58      16.10
H       4.53      28.94      16.68
H       3.16      29.95      16.19
H       8.29      31.43      19.17
H       6.86      30.41      19.13
H       8.01      30.33      17.80
H       3.05      33.75      16.08
H       2.83      33.21      17.74
H       3.34      34.86      17.43
H       8.67      41.06      29.09
H       3.36      42.46      24.19
H       2.66      44.97      27.46
H       5.35      38.77      30.24
H       5.64      40.11      25.90
H       4.21      40.05      24.89
H       5.59      41.06      24.42
H       4.80      43.20      29.88
H       4.53      44.84      29.30
H       3.16      43.83      29.80
H       8.30      42.35      26.81
H       6.86      43.37      26.85
H       8.01      43.45      28.18
H       3.05      40.03      29.90
H       2.83      40.57      28.25
H       3.34      38.92      28.55
H       1.25      19.26       3.27
H       6.48      14.39       4.93
H       7.11      17.66       7.46
H       4.67      20.43       1.15
H       4.34      16.11       2.47
H       5.77      15.09       2.49
H       4.32      14.63       3.41
H       5.07      20.09       5.57
H       5.26      19.53       7.23
H       6.68      19.98       6.27
H       1.58      16.99       4.60
H       2.96      17.06       5.69
H       1.79      18.37       5.69
H       6.90      20.11       2.51
H       7.11      18.46       3.08
H       6.68      18.75       1.40
H       1.25       6.83      42.71
H       6.48      11.71      41.06
H       7.11       8.44      38.52
H       4.67       5.66      44.84
H       4.35       9.98      43.52
H       5.77      11.01      43.49
H       4.32      11.47      42.58
H       5.07       6.00      40.41
H       5.26       6.56      38.75
H       6.68       6.11      39.71
H       1.58       9.10      41.39
H       2.96       9.04      40.29
H       1.79       7.72      40.29
H       6.90       5.98      43.47
H       7.11       7.63      42.90
H       6.68       7.35      44.59
H       1.20      41.00      16.90
H       6.81      42.16      21.58
H       7.12      45.08      18.59
H       4.56      39.01      15.39
H       4.46      39.92      19.79
H       6.00      39.81      20.65
H       4.63      40.67      21.38
H       4.86      43.47      16.14
H       5.09      45.05      16.88
H       6.47      44.17      16.19
H       1.63      42.15      19.24
H       3.01      43.24      19.21
H       1.79      43.36      17.95
H       6.80      40.35      15.70
H       7.10      40.80      17.37
H       6.66      39.14      16.99
H       1.20      32.78      29.09
H       6.81      31.62      24.41
H       7.11      28.70      27.39
H       4.56      34.77      30.59
H       4.46      33.86      26.19
H       6.00      33.98      25.34
H       4.63      33.11      24.61
H       4.86      30.31      29.84
H       5.09      28.73      29.10
H       6.47      29.61      29.79
H       1.63      31.63      26.75
H       3.01      30.54      26.77
H       1.79      30.42      28.04
H       6.80      33.43      30.29
H       7.10      32.98      28.61
H       6.67      34.64      28.99
N       7.71      38.75      39.20
N       2.00      44.45      44.74
N       7.71      35.03       6.79
N       2.00      29.33       1.25
N       7.93      20.70      24.91
N       2.02      15.27      30.55
N       7.92       5.40      21.07
N       2.02      10.82      15.43
N       2.32      34.74      38.86
N       8.00      29.23      44.64
N       2.32      39.04       7.12
N       8.00      44.55       1.35
N       2.08       5.54      25.04
N       8.10      10.76      30.70
N       2.08      20.55      20.95
N       8.10      15.33      15.29
N       2.30      11.19       6.78
N       8.01       5.49       1.25
N       2.30      14.90      39.20
N       8.01      20.60      44.73
N       2.09      29.24      21.07
N       7.99      34.67      15.43
N       2.09      44.54      24.91
N       7.99      39.11      30.55
N       7.69      15.20       7.13
N       2.01      20.70       1.35
N       7.69      10.90      38.86
N       2.02       5.39      44.64
N       7.93      44.39      20.95
N       1.91      39.17      15.29
N       7.93      29.39      25.04
N       1.91      34.61      30.70
