22

Gd       3.98       5.72       0.02
Gd       0.41       7.31      -0.02
C       1.18       4.66       1.72
C       1.83       4.85      -2.12
C      -1.97      10.10      -1.90
C      -1.37       9.02      -1.08
C       3.21       8.37      -1.72
C       2.56       8.17       2.12
C       6.36       2.92       1.90
C       5.76       4.00       1.08
O       0.28       5.54       1.53
O       2.32       4.65       1.15
O       3.05       4.63      -1.83
O       1.08       5.63      -1.43
O      -0.79       9.32       0.03
O      -1.36       7.80      -1.50
O       4.10       7.48      -1.53
O       2.07       8.38      -1.15
O       1.34       8.40       1.83
O       3.31       7.39       1.43
O       5.18       3.70      -0.03
O       5.75       5.22       1.50
