26

La       1.49       1.97       5.32
La      -1.45      -0.90       6.01
P       4.49       2.45       7.54
P       4.13       1.98       3.54
P       1.42      -1.38       3.78
P       1.78      -0.91       7.79
C      -0.23       3.88       7.76
C      -0.61       5.10       5.69
C       1.43       5.38       6.88
C       4.65       1.13       1.99
C       0.27      -2.81       3.56
C       2.06       5.98       5.64
C       0.03       5.70       4.45
C       1.26      -0.06       9.33
N       0.40       4.38       6.51
N      -0.35      -3.31       4.81
O       3.27       2.91       6.74
O      -0.51       1.38       6.80
O      -0.40       2.58       3.97
O       2.95       2.93       3.33
O       3.60       0.83       4.46
O      -3.23      -1.84       4.59
O       0.56      -0.31       4.53
O       0.45      -1.51       7.36
O      -2.91      -1.86       8.00
O       2.31       0.24       6.87
