231

C       7.34      12.17       0.49
C       7.71      13.48       0.15
C       6.85      13.97      33.48
C       5.90      13.00      33.14
C       4.92      13.31      32.16
C       4.89      14.60      31.53
C       5.87      15.55      31.92
C       6.85      15.25      32.89
C       8.81      14.12       0.75
C       9.55      13.43       1.72
C       9.22      12.10       2.11
C       8.10      11.48       1.48
C       4.95      11.34       0.49
C       4.58      10.04       0.15
C       5.45       9.54      33.48
C       6.39      10.52      33.14
C       5.45       8.27      32.89
C       6.42       7.96      31.92
C       7.41       8.91      31.53
C       7.37      10.20      32.16
C       4.19      12.03       1.48
C       3.07      11.41       2.11
C       2.74      10.09       1.72
C       3.49       9.40       0.76
C       6.15      11.76      33.96
C       8.33       8.57      30.53
C       2.34      12.03       3.14
C       9.96      11.48       3.14
C       3.96      14.94      30.53
C      19.87      10.52      11.92
C      20.82       9.54      11.58
C      21.68      10.04      10.62
C      21.31      11.35      10.28
C      -5.86      12.04       9.30
C      -4.73      11.43       8.67
C      -4.40      10.10       9.06
C      -5.15       9.41      10.03
C      20.83       8.27      12.19
C      19.86       7.97      13.15
C      18.87       8.92      13.54
C      18.90      10.20      12.91
C      20.35      13.00      11.92
C      19.41      13.97      11.58
C      18.54      13.47      10.62
C      18.92      12.17      10.28
C      17.44      14.11      10.03
C      16.69      13.41       9.06
C      17.02      12.09       8.67
C      18.15      11.48       9.30
C      -6.60      13.31      12.91
C      -6.58      14.59      13.54
C      -7.57      15.54      13.15
C      -8.53      15.24      12.19
C      20.11      11.76      11.10
C      16.26      11.46       7.67
C      -5.67      14.92      14.57
C      17.97       8.59      14.57
C      -3.97      12.06       7.67
C      12.18       0.49      23.35
C      10.86       0.16      23.01
C      -3.11      23.35      22.05
C      -1.79      23.02      21.71
C      -1.57      22.01      20.73
C      -2.67      21.34      20.10
C      -3.98      21.72      20.49
C      -4.21      22.71      21.46
C       9.76       0.78      23.62
C       9.98       1.77      24.59
C      11.29       2.16      24.97
C      12.39       1.49      24.34
C       0.12      23.02      23.35
C       1.43      23.36      23.01
C      15.40       0.16      22.05
C      14.08       0.49      21.71
C      16.50       0.80      21.46
C      16.28       1.79      20.49
C      14.96       2.17      20.10
C      13.87       1.50      20.73
C      -0.10      22.02      24.34
C       1.00      21.36      24.97
C       2.31      21.74      24.58
C       2.54      22.73      23.62
C      -0.84      23.85      22.53
C      14.79       3.14      19.10
C       0.83      20.41      26.00
C      11.46       3.10      26.00
C      -2.50      20.37      19.10
C       9.25       6.62      29.32
C       9.61       7.05      28.02
C      10.10       6.14      27.07
C      10.34       4.77      27.35
C       9.98       4.35      28.65
C       9.45       5.24      29.59
C       9.78       8.05      26.18
C       9.42       3.26      30.35
C      14.11      11.63       6.46
C      14.30      11.11       5.16
C      13.27      11.14       4.21
C      11.97      11.62       4.49
C      11.78      12.14       5.79
C      12.82      12.15       6.73
C      15.08      10.46       3.32
C      11.12      13.17       7.49
C      16.02       4.92      17.89
C      15.48       5.02      16.59
C      16.02       5.90      15.64
C      17.08       6.78      15.92
C      17.63       6.68      17.22
C      17.12       5.77      18.16
C      14.52       4.67      14.75
C      18.86       6.74      18.92
C       3.04      16.89      29.32
C       2.68      16.47      28.02
C       2.19      17.37      27.07
C       1.96      18.74      27.35
C       2.31      19.16      28.65
C       2.85      18.27      29.59
C       2.51      15.46      26.18
C       2.87      20.26      30.35
C      -1.82      11.88       6.46
C      -2.01      12.40       5.16
C      -0.98      12.37       4.21
C       0.32      11.89       4.49
C       0.51      11.37       5.79
C      -0.53      11.36       6.73
C      -2.79      13.05       3.32
C       1.18      10.34       7.49
C      -3.73      18.59      17.89
C      -3.18      18.50      16.59
C      -3.72      17.62      15.64
C      -4.79      16.73      15.92
C      -5.33      16.83      17.22
C      -4.83      17.74      18.16
C      -2.23      18.85      14.75
C      -6.56      16.77      18.92
H       1.97       9.58       2.16
H       3.23       8.44       0.51
H       4.75       7.56      33.14
H       6.38       7.04      31.50
H       8.06      10.91      31.90
H       4.47      12.98       1.73
H       4.24      12.60      31.90
H       5.91      16.48      31.49
H       7.54      15.95      33.14
H       7.83      10.53       1.73
H       9.06      15.07       0.51
H      10.33      13.93       2.16
H       2.75      12.78       3.65
H       8.78       9.29      30.02
H       9.54      10.74       3.65
H       3.51      14.22      30.02
H      -7.61      16.46      13.59
H      18.70      15.94      11.94
H      17.18      15.06      10.28
H      15.91      13.91       8.63
H      18.43      10.52       9.04
H      -5.92      12.60      13.16
H      -6.13      12.99       9.04
H      -3.61       9.60       8.63
H      23.05       8.45      10.28
H      18.21      10.92      13.16
H      21.53       7.57      11.94
H      19.90       7.05      13.59
H      -5.23      14.19      15.08
H      16.66      10.70       7.16
H      17.53       9.33      15.08
H      -4.37      12.81       7.15
H       3.13      21.32      25.02
H       3.49      22.99      23.37
H      17.46       0.55      21.71
H      17.10       2.23      20.06
H      12.91       1.74      20.47
H      -1.06      21.78      24.59
H      -0.61      21.77      20.47
H      -4.81      21.29      20.06
H      -5.17      22.96      21.71
H      13.35       1.73      24.59
H       8.80       0.53      23.37
H       9.16       2.19      25.02
H      -0.02      20.40      26.52
H      13.94       3.18      18.59
H      12.32       3.11      26.51
H      -1.65      20.34      18.59
H       9.71       8.76      25.46
H       9.23       2.48      30.99
H      15.74      10.17       2.60
H      10.54      13.72       8.13
H      13.94       4.25      14.03
H      19.62       6.97      19.56
H       2.58      14.75      25.46
H       3.06      21.03      30.99
H      -3.44      13.35       2.60
H       1.75       9.79       8.13
H      -1.65      19.27      14.03
H      -7.33      16.55      19.56
N      10.19       6.79      25.91
N       9.09       4.52      30.65
N       8.56       7.34      30.21
N      10.50       3.88      26.37
N      13.80      10.74       3.05
N      12.38      12.82       7.79
N      15.08      11.87       7.35
N      11.12      11.92       3.51
N      15.41       5.64      14.48
N      17.92       5.83      19.22
N      15.75       3.96      18.78
N      17.77       7.37      14.94
N       2.11      16.72      25.91
N       3.20      18.99      30.65
N       3.73      16.17      30.21
N       1.79      19.63      26.37
N      -1.50      12.78       3.05
N      -0.08      10.69       7.79
N      -2.79      11.64       7.35
N       1.18      11.59       3.51
N      -3.11      17.87      14.48
N      -5.63      17.68      19.22
N      -3.45      19.55      18.78
N      -5.48      16.14      14.94
O       9.37       8.27      27.47
O       9.95       3.07      29.11
O      15.48      10.71       4.61
O      10.69      12.81       6.24
O      14.54       4.20      16.04
O      18.76       7.29      17.68
O       2.92      15.25      27.47
O       2.35      20.44      29.10
O      -3.18      12.81       4.61
O       1.61      10.70       6.24
O      -2.24      19.31      16.04
O      -6.46      16.22      17.68
