26

C       0.80      17.18      13.47
H      -1.61      24.74      11.54
H       0.58      23.58      11.08
H      -0.83      20.30      13.50
H      -2.93      21.65      13.93
H       3.92      17.80      12.13
H       4.04      16.23      13.97
H       2.84      14.57      15.39
H      -0.86      16.10      14.35
H       0.18      17.89      12.93
N      -2.36      23.22      12.72
N       1.39      19.87      12.43
N       2.58      19.32      12.04
N       0.95      15.28      14.94
O       2.08      21.63      11.05
C      -1.39      23.76      11.95
C      -0.20      23.10      11.67
C       0.00      21.82      12.20
C      -0.98      21.28      13.04
C      -2.14      22.01      13.28
C       1.24      21.07      11.87
C       2.94      18.14      12.48
C       2.21      17.22      13.34
C       2.95      16.26      14.05
C       2.29      15.33      14.84
C       0.23      16.19      14.26
