26

C       1.39      17.13       9.62
C       0.20      17.78       9.89
C      -0.00      19.07       9.36
C       0.98      19.61       8.52
C       2.14      18.87       8.28
C      -1.24      19.81       9.69
C      -2.94      22.75       9.08
C      -2.21      23.66       8.22
C      -2.95      24.62       7.51
C      -2.29      25.55       6.72
C      -0.23      24.69       7.30
C      -0.80      23.71       8.10
H       1.61      16.14      10.03
H      -0.58      17.30      10.49
H       0.83      20.58       8.07
H       2.93      19.24       7.63
H      -3.92      23.08       9.44
H      -4.04      24.66       7.59
H      -2.84      26.31       6.17
H       0.86      24.78       7.22
H      -0.18      22.99       8.63
N       2.36      17.67       8.84
N      -1.39      21.01       9.13
N      -2.58      21.56       9.52
N      -0.95      25.60       6.62
O      -2.08      19.25      10.51
