26

C       1.39      13.54      11.95
C       0.20      12.88      11.67
C      -0.00      11.60      12.20
C       0.98      11.06      13.04
C       2.14      11.79      13.28
C      -1.24      10.85      11.87
C      -2.94       7.92      12.48
C      -2.21       7.00      13.34
C      -2.95       6.04      14.05
C      -2.29       5.11      14.84
C      -0.23       5.97      14.26
C      -0.80       6.96      13.47
H       1.61      14.52      11.54
H      -0.58      13.36      11.08
H       0.83      10.08      13.50
H       2.93      11.43      13.93
H      -3.92       7.58      12.13
H      -4.04       6.01      13.97
H      -2.84       4.35      15.39
H       0.86       5.88      14.35
H      -0.18       7.67      12.93
N       2.36      13.00      12.72
N      -1.39       9.65      12.43
N      -2.58       9.10      12.04
N      -0.95       5.06      14.94
O      -2.08      11.41      11.05
