26

H       1.61       5.92       0.75
H      -0.58       7.08       0.29
H       0.83      10.36       2.72
H       2.93       9.01       3.15
H      -3.92      12.86       1.35
H      -4.04      14.43       3.19
H      -2.84      16.09       4.61
H       0.86      14.56       3.57
H      -0.18      12.77       2.15
N       2.36       7.44       1.94
N      -1.39      10.79       1.65
N      -2.58      11.34       1.26
N      -0.95      15.38       4.16
C       1.39       6.91       1.16
C       0.20       7.56       0.89
C      -0.00       8.85       1.42
C       0.98       9.38       2.26
C       2.14       8.65       2.50
C      -1.24       9.59       1.09
C      -2.94      12.53       1.70
C      -2.21      13.44       2.56
C      -2.95      14.40       3.27
C      -2.29      15.33       4.06
O      -2.08       9.03       0.27
C      -0.80      13.49       2.69
C      -0.23      14.47       3.48
