522

H      19.97      33.39      19.34
H      27.29      33.39      19.34
H      26.47      29.79      17.27
H      20.78      29.79      17.27
H      23.63      28.88      20.07
H      23.62      31.76      15.12
H      18.47      30.45      17.68
H      28.79      30.45      17.69
H      23.64      27.00      21.60
H       6.48      33.46      19.38
H       9.08      33.46      19.38
H       0.44      31.43      18.80
H      16.22      29.97      19.83
H      13.30      29.52      17.63
H      24.77      24.98      26.69
H      22.38      25.98      26.98
H      21.14      25.36      25.88
H      22.28      26.62      25.34
H      23.63      32.08      12.61
H      12.96      28.00      18.47
H      14.03      28.02      17.05
H      15.10      26.60      18.95
H      15.57      27.48      20.42
H      16.62      27.50      18.99
H      22.21      24.65      23.58
H      24.77      23.39      25.91
H      23.66      23.71      27.24
H      24.78      33.02       5.55
H      23.66      34.02       4.61
H      19.96      11.27      19.33
H      22.33      10.88      19.56
H      24.93      10.88      19.56
H      27.29      11.27      19.33
H      26.47      14.86      17.25
H      20.78      14.86      17.25
H      23.63      12.89      15.07
H      23.65      16.17      12.40
H      23.63      17.68      14.19
H      23.62      15.74      20.03
H      23.65      18.89      16.30
H      23.74      19.63      18.50
H      18.46      14.17      17.62
H      28.78      14.16      17.61
H      23.63      17.75      21.57
H      23.64      12.50      12.67
H      22.33      33.78      19.56
H      24.93      33.78      19.56
H      23.65      24.93      18.56
H      23.63      25.73      16.36
H      23.65      26.95      14.26
H      23.75      28.48      12.52
H      19.96      22.33       0.18
H      22.32      -0.26      38.84
H      24.92      -0.26      38.84
H      27.29      22.33       0.18
H      26.47      22.34       4.33
H      20.78      22.34       4.33
H      23.63      25.22       3.72
H      23.64      25.89       7.89
H      23.63      23.58       8.31
H      23.62      19.49       3.70
H      23.64      21.15       8.30
H      23.74      18.88       7.84
H      18.46      22.37       3.55
H      28.78      22.38       3.55
H      23.63      17.16       4.68
H      23.64      27.49       4.58
H       4.12      10.81      19.61
H       6.48      11.20      19.38
H       9.08      11.20      19.38
H      11.44      10.81      19.61
H      10.63       7.22      21.69
H       4.93       7.22      21.69
H       7.78       9.19      23.87
H       7.80       5.90      26.54
H       7.78       4.40      24.75
H       7.78       6.34      18.91
H       7.80       3.19      22.64
H       7.90       2.45      20.44
H       2.62       7.91      21.32
H      12.94       7.91      21.33
H       7.79       4.33      17.37
H       7.79       9.57      26.27
H       4.12     -11.31      19.60
H      11.44     -11.31      19.60
H      10.63      -7.71      21.67
H       4.93      -7.71      21.67
H       7.78      -6.80      18.87
H       7.80      -2.85      20.38
H       7.78      -3.65      22.58
H       7.78      -9.68      23.82
H       7.80      -4.87      24.68
H       7.90      -6.40      26.42
H       2.62      -8.37      21.26
H      12.94      -8.37      21.25
H       7.79     -10.00      26.33
H       7.79      -4.92      17.34
H       4.11      -0.26      38.76
H       6.48      22.33       0.10
H       9.08      22.33       0.10
H      11.44      -0.25      38.76
H      10.62      -0.26      34.61
H       4.93      -0.26      34.61
H       7.78      -3.14      35.22
H       7.80      -3.81      31.04
H       7.78      -1.50      30.63
H       7.77       2.59      35.24
H       7.80       0.93      30.64
H       7.89       3.20      31.10
H       2.62      -0.29      35.39
H      12.93      -0.30      35.39
H       7.78       4.92      34.26
H       7.79      -5.41      34.36
H       0.44      12.72      17.91
H       0.37       9.53      22.81
H      29.15       7.40      22.10
H      28.80       7.36      23.84
H      29.88       6.14      23.12
H      30.95       7.08      25.30
H      31.41       8.79      25.26
H       0.78       7.56      24.53
H       0.38      -7.89      19.11
H      29.15      -7.44      21.31
H      28.81      -5.92      20.47
H      29.88      -5.94      21.89
H      30.95      -4.52      19.99
H      31.41      -5.40      18.52
H       0.78      -5.42      19.95
H       0.44      22.84       2.15
H       0.37      -2.39      36.04
H      29.15      -0.71      34.55
H      28.80      -2.20      33.66
H      29.88      -0.96      32.96
H      30.95      -3.32      32.69
H      31.41      -4.14      34.18
H       0.77      -2.90      33.48
H      16.29       9.36      21.03
H      16.22      12.55      16.13
H      13.30      14.68      16.84
H      12.96      14.72      15.10
H      14.03      15.93      15.82
H      15.10      15.00      13.64
H      15.56      13.29      13.67
H      16.62      14.52      14.41
H      16.29      -9.35      20.14
H      16.29      -0.77      36.79
H      16.22      24.47       2.89
H      13.30      22.79       4.38
H      12.96      24.28       5.28
H      14.03      23.04       5.98
H      15.10      25.40       6.25
H      15.56      26.22       4.76
H      16.62      24.97       5.46
H      23.36      17.56       9.28
H      22.21      11.96       9.64
H      24.77      10.58       7.39
H      23.66       9.27       7.00
H      24.77       9.11       8.37
H      22.38       8.36       9.09
H      21.14       9.62       9.11
H      22.28       9.46      10.47
H      23.36      21.54      18.92
H      23.36      27.89      10.65
H      22.21      30.38       5.62
H      24.77      32.90       3.79
H      22.38      32.66       2.78
H      21.14      32.01       3.86
H      22.28      30.91       3.04
H       7.51       4.52      29.66
H       6.36      10.12      29.30
H       8.92      11.50      31.55
H       7.81      12.81      31.94
H       8.92      12.97      30.57
H       6.53      13.72      29.85
H       5.29      12.46      29.83
H       6.43      12.62      28.47
H       7.52       0.54      20.02
H       6.36      -2.57      15.35
H       8.93      -1.31      13.03
H       7.81      -1.63      11.70
H       8.93      -2.90      12.25
H       6.54      -3.90      11.96
H       5.30      -3.28      13.06
H       6.43      -4.54      13.60
H       7.52      -5.82      28.29
H       6.36      -8.30      33.32
H       8.93     -10.94      33.38
H       7.81     -11.94      34.32
H       8.93     -10.83      35.15
H       6.53     -10.58      36.16
H       5.29      -9.93      35.08
H       6.43      -8.83      35.90
C      22.47      30.88      17.90
C      22.92      32.03      18.55
C      24.33      32.03      18.55
C      24.79      30.88      17.90
C      25.26      32.95      19.08
C      26.64      32.71      18.94
C      27.14      31.55      18.28
C      26.18      30.64      17.76
C      21.08      30.64      17.76
C      20.11      31.55      18.28
C      20.61      32.70      18.94
C      22.00      32.95      19.08
C      23.63      30.07      17.45
C      28.52      31.29      18.15
C      18.73      31.29      18.15
C       0.16      32.37      19.07
C      30.51      32.79      19.01
C      16.72      32.74      19.04
C      15.37      32.30      19.13
C      15.43      29.96      19.22
C      22.17      25.72      25.94
C      23.62      29.84      16.00
C      23.62      28.47      15.75
C      23.63      27.77      16.93
C      23.63      28.68      17.98
C      23.63      28.20      19.31
C      23.63      26.79      19.57
C      23.63      25.92      18.45
C      23.63      26.39      17.13
C      23.63      27.95      14.45
C      23.65      28.87      13.41
C      23.63      30.27      13.58
C      23.62      30.76      14.92
C      23.63      31.10      12.46
C      23.63      26.32      20.88
C      13.73      28.57      17.95
C      15.59      27.50      19.32
C      23.62      23.78      21.23
C      23.68      22.94      22.37
C      22.94      24.25      24.13
C      24.14      24.15      26.37
C      23.61      29.99      10.11
C      23.62      15.94      17.93
C      23.62      16.84      16.87
C      23.63      16.17      15.68
C      23.63      14.80      15.94
C      23.63      13.89      14.85
C      23.63      14.37      13.51
C      23.63      15.77      13.31
C      23.63      16.68      14.38
C      23.63      18.22      17.07
C      23.65      18.66      18.38
C      23.63      17.82      19.51
C      23.62      16.42      19.26
C      22.47      13.77      17.88
C      22.92      12.63      18.55
C      24.33      12.63      18.55
C      24.79      13.77      17.88
C      25.26      11.72      19.08
C      26.64      11.96      18.94
C      27.14      13.11      18.28
C      26.18      14.01      17.75
C      21.08      14.01      17.74
C      20.11      13.11      18.27
C      20.61      11.96      18.94
C      22.00      11.72      19.08
C      23.63      14.56      17.40
C      28.52      13.34      18.11
C      18.73      13.35      18.10
C      23.63      18.37      20.79
C      23.63      13.47      12.44
C      23.62      21.21       4.92
C      23.62      21.68       6.24
C      23.62      23.05       6.25
C      23.63      23.51       4.93
C      23.63      24.90       4.69
C      23.63      25.83       5.78
C      23.63      25.30       7.09
C      23.63      23.92       7.34
C      23.63      20.82       7.33
C      23.65      19.46       7.06
C      23.63      18.91       5.76
C      23.62      19.82       4.67
C      22.47      22.35       3.07
C      22.92      22.34       1.75
C      24.33      22.33       1.75
C      24.79      22.35       3.07
C      25.26      22.33       0.69
C      26.64      22.33       0.97
C      27.14      22.33       2.30
C      26.18      22.34       3.35
C      21.08      22.34       3.35
C      20.11      22.33       2.30
C      20.61      22.33       0.97
C      22.00      22.33       0.69
C      23.63      22.36       4.00
C      28.52      22.35       2.59
C      18.73      22.36       2.59
C      23.63      17.52       5.60
C      23.63      27.21       5.53
C       7.78       6.14      21.01
C       7.77       5.24      22.07
C       7.78       5.91      23.26
C       7.78       7.28      23.00
C       7.78       8.19      24.09
C       7.78       7.71      25.43
C       7.78       6.31      25.63
C       7.78       5.40      24.56
C       7.78       3.86      21.87
C       7.80       3.42      20.56
C       7.78       4.26      19.43
C       7.77       5.66      19.67
C       6.62       8.31      21.06
C       7.08       9.45      20.39
C       8.48       9.45      20.39
C       8.94       8.31      21.06
C       9.41      10.36      19.86
C      10.80      10.12      20.00
C      11.29       8.97      20.66
C      10.33       8.06      21.19
C       5.23       8.06      21.20
C       4.26       8.97      20.67
C       4.76      10.12      20.00
C       6.15      10.36      19.86
C       7.78       7.52      21.54
C      12.67       8.74      20.83
C       2.88       8.73      20.83
C       7.78       3.71      18.15
C       7.78       8.61      26.50
C       7.78      -7.76      22.94
C       7.77      -6.39      23.19
C       7.78      -5.69      22.01
C       7.78      -6.60      20.96
C       7.78      -6.12      19.63
C       7.78      -4.72      19.37
C       7.78      -3.85      20.49
C       7.78      -4.31      21.81
C       7.78      -5.87      24.48
C       7.80      -6.79      25.53
C       7.78      -8.19      25.36
C       7.77      -8.68      24.02
C       6.62      -8.80      21.04
C       7.08      -9.95      20.38
C       8.48      -9.95      20.39
C       8.94      -8.80      21.04
C       9.41     -10.87      19.86
C      10.80     -10.63      20.00
C      11.30      -9.48      20.66
C      10.33      -8.56      21.18
C       5.23      -8.56      21.18
C       4.26      -9.47      20.66
C       4.76     -10.63      20.00
C       6.15     -10.87      19.86
C       7.78      -7.99      21.49
C      12.67      -9.22      20.79
C       2.88      -9.21      20.79
C       7.78      -9.02      26.48
C       7.78      -4.24      18.06
C       7.77       0.86      34.02
C       7.77       0.39      32.70
C       7.78      -0.98      32.69
C       7.78      -1.43      34.01
C       7.78      -2.82      34.25
C       7.78      -3.75      33.16
C       7.78      -3.22      31.85
C       7.78      -1.85      31.60
C       7.78       1.26      31.61
C       7.80       2.62      31.88
C       7.78       3.17      33.18
C       7.77       2.26      34.27
C       6.62      -0.27      35.87
C       7.07      -0.26      37.19
C       8.48      -0.26      37.19
C       8.94      -0.27      35.87
C       9.41      -0.25      38.25
C      10.79      -0.25      37.97
C      11.29      -0.25      36.64
C      10.33      -0.26      35.59
C       5.23      -0.26      35.59
C       4.26      -0.25      36.64
C       4.76      -0.25      37.97
C       6.15      -0.25      38.25
C       7.78      -0.28      34.94
C      12.67      -0.28      36.36
C       2.88      -0.28      36.35
C       7.78       4.56      33.34
C       7.78      -5.13      33.41
C       0.87      10.22      20.02
C       0.16      12.01      18.58
C      30.50      11.85      18.98
C      31.21      10.08      20.45
C      31.28       8.99      22.52
C      29.58       7.19      23.09
C      31.43       7.85      24.70
C       0.87     -10.66      19.90
C      31.21     -10.22      19.81
C      31.28      -7.88      19.72
C      29.58      -6.49      20.99
C      31.43      -5.43      19.61
C       0.87      -0.32      38.04
C       0.16      22.61       1.20
C      30.50      22.35       0.86
C      31.21      -0.62      37.71
C      31.28      -1.87      35.73
C      29.57      -1.46      33.89
C      31.43      -3.19      33.66
C      16.72      11.86      18.92
C      16.01      10.06      20.35
C      14.65      10.23      19.96
C      15.36      12.00      18.49
C      15.43      13.08      16.42
C      13.73      14.89      15.85
C      15.59      14.22      14.24
C      16.01     -10.29      19.87
C      14.66     -10.71      19.93
C      16.72      22.40       0.90
C      16.00      -0.53      37.74
C      14.65      -0.27      38.08
C      15.36      22.70       1.23
C      15.43      23.95       3.21
C      13.73      23.54       5.05
C      15.58      25.26       5.28
C      23.62      14.43      10.06
C      23.50      16.59       9.05
C      23.61      16.04       7.74
C      23.68      13.87       8.77
C      22.94      11.68       9.02
C      24.14       9.80       7.82
C      22.17       9.38       9.39
C      23.50      21.82      19.88
C      23.61      20.97      21.00
C      23.62      28.78       7.55
C      23.50      28.58       9.93
C      23.68      30.19       7.71
C      22.94      31.06       5.70
C      24.14      33.04       4.67
C      22.17      31.89       3.52
C       7.77       7.65      28.88
C       7.65       5.49      29.89
C       7.76       6.04      31.20
C       7.83       8.21      30.17
C       7.09      10.39      29.92
C       8.29      12.27      31.12
C       6.32      12.69      29.55
C       7.77      -1.70      17.71
C       7.65       0.26      19.06
C       7.76       1.11      17.94
C       7.83      -0.86      16.57
C       7.09      -2.17      14.80
C       8.29      -2.07      12.57
C       6.33      -3.64      13.00
C       7.77      -6.70      31.39
C       7.65      -6.50      29.01
C       7.76      -7.91      28.83
C       7.83      -8.11      31.23
C       7.09      -8.98      33.24
C       8.29     -10.96      34.27
C       6.33      -9.81      35.42
N       1.12      33.23      19.51
N      29.50      32.03      18.57
N      14.41      33.17      19.56
N      14.94      31.08      18.83
N      14.90      28.73      18.85
N      17.76      32.02      18.60
N      23.72      23.37      23.61
N      23.09      24.66      25.45
N      23.63      25.11      21.33
N      23.69      30.72       8.97
N      23.62      30.71      11.23
N       1.12      11.20      19.11
N      30.26      10.89      19.90
N      30.78       9.22      21.35
N      30.75       8.05      23.39
N       1.91       9.48      20.43
N      29.50      12.62      18.53
N      30.26     -11.09      19.38
N      30.78      -9.00      20.11
N      30.75      -6.65      20.09
N       1.91      -9.94      20.34
N       1.12      22.57       0.23
N      30.25      -0.55      38.68
N      30.78      -0.97      36.51
N      30.75      -2.16      34.48
N       1.91      -0.30      37.20
N      29.51      22.35       1.75
N      16.96      10.88      19.83
N      14.41      11.19      19.04
N      14.94      12.86      17.59
N      14.90      14.02      15.55
N      17.76      12.60      18.51
N      13.66       9.46      20.41
N      16.96     -11.15      19.42
N      13.66      -9.94      20.37
N      16.96      -0.49      38.71
N      14.41      22.63       0.26
N      14.94      23.05       2.43
N      14.90      24.23       4.46
N      17.76      22.38       1.74
N      13.66      -0.27      37.18
N      23.51      15.77      10.12
N      23.69      14.69       7.68
N      23.72      12.58       8.52
N      23.09      10.34       8.72
N      23.63      13.69      11.17
N      23.62      16.65       6.56
N      23.51      23.16      20.05
N      23.69      21.59      22.21
N      23.62      19.63      21.07
N      23.51      28.06       8.69
N      23.72      31.04       6.72
N      23.09      31.99       4.68
N      23.63      28.20       6.36
N       7.66       6.31      28.82
N       7.84       7.39      31.26
N       7.87       9.50      30.41
N       7.24      11.74      30.22
N       7.78       8.39      27.77
N       7.77       5.42      32.38
N       7.66      -1.08      18.89
N       7.84       0.49      16.73
N       7.87      -1.30      15.33
N       7.24      -2.58      13.49
N       7.78      -3.03      17.61
N       7.77       2.45      17.87
N       7.66      -5.98      30.25
N       7.84      -8.64      29.97
N       7.87      -8.96      32.22
N       7.24      -9.91      34.26
N       7.78      -6.12      32.58
N       7.77      -8.63      27.71
