16

C       1.76       2.24      13.86
H       0.87       2.12      13.24
H       0.86       1.45      15.66
H       4.97       2.68      16.01
H       4.97       3.36      13.60
C       1.75       1.87      15.20
O       1.81       3.32      11.25
C       4.08       2.94      14.06
O       4.06       3.45      11.31
C       2.92       2.78      13.28
O       1.80       1.36      17.97
O       4.06       1.43      17.97
C       2.91       2.03      15.98
C       4.08       2.57      15.40
C       2.93       3.21      11.85
C       2.92       1.59      17.40
