44

C       5.58       3.67      26.46
C       5.90       4.63      25.37
C       6.69       5.76      25.65
C       6.99       6.68      24.67
C       6.52       6.48      23.36
C       5.73       5.36      23.05
C       5.42       4.45      24.06
C       6.54       7.26      21.06
C       7.08       8.45      20.32
C       6.50       9.72      20.47
C       7.09      10.81      19.81
C       8.22      10.64      19.01
C       8.79       9.38      18.87
C       8.22       8.29      19.53
C       5.28       9.93      21.34
C       3.76      11.05      19.85
C       3.86      10.04      18.87
C       2.84      12.11      19.66
C       3.07      10.11      17.73
C       2.04      12.15      18.53
C       2.15      11.16      17.53
C       1.32      11.18      16.30
H       7.04       5.88      26.67
H       7.57       7.58      24.87
H       5.35       5.20      22.04
H       4.81       3.58      23.86
H       7.01       6.33      20.70
H       5.45       7.16      20.97
H       6.63      11.79      19.91
H       8.67      11.49      18.50
H       9.69       9.24      18.26
H       8.67       7.30      19.43
H       5.57      10.10      22.38
H       4.62       9.05      21.32
H       4.57       9.23      18.99
H       2.77      12.87      20.43
H       3.16       9.36      16.95
H       1.32      12.97      18.39
O       1.68      10.42      15.33
O       6.07       3.86      27.61
O       0.27      11.91      16.26
O       4.79       2.69      26.19
O       6.89       7.45      22.46
O       4.51      11.10      20.99
