624

C       8.27      13.73       8.84
C       9.67      13.77       8.56
C       1.25       0.08      11.26
C       0.61       0.72      39.04
C       0.39       0.49      37.64
C       0.90       1.32      36.61
C       1.36       1.91      39.32
C       0.30       0.11      85.91
C       1.69       0.00      86.23
C       2.36       0.17      83.89
C       8.85      13.77      83.50
C       0.54       0.94      24.45
C       0.48       0.64      25.85
C       0.97       1.51      26.86
C       1.14       2.19      24.14
C       1.26       0.30      62.53
C       0.45      26.97      60.18
C       9.87      13.83      32.07
C       8.95      14.28      33.04
C       9.30      14.39      34.38
C      11.60       7.98      54.98
C      12.03       7.24      53.83
C      11.80       7.64      52.53
C      10.88       9.19      54.93
C       9.11      12.30      15.86
C       8.68      13.19      14.85
C       8.87      12.90      13.50
C       0.79       1.83      78.34
C       0.24       1.01      77.33
C       0.40       1.31      75.98
C       1.12      26.73      47.81
C       2.48      26.67      48.05
C       0.58       0.19       8.84
C       1.98       0.17       8.55
C       2.62       0.09      10.90
C       8.93      13.70      11.27
C       8.39      14.27      39.04
C       8.17      14.04      37.64
C       8.69      14.87      36.62
C       9.15      15.45      39.32
C       8.15      13.63      85.91
C       9.54      13.53      86.22
C      10.20      13.69      83.88
C       1.00       0.25      83.51
C       8.35      14.46      24.45
C       8.29      14.16      25.85
C       8.78      15.03      26.86
C       8.95      15.72      24.14
C       9.07      13.83      62.53
C       8.26      13.44      60.19
C       2.07       0.30      32.06
C       1.15       0.75      33.04
C       1.51       0.85      34.38
C       3.79      21.50      54.98
C       4.22      20.77      53.83
C       3.99      21.17      52.53
C       3.07      22.71      54.93
C       1.38      25.80      15.89
C       0.97      26.68      14.86
C       1.21      26.38      13.52
C       8.60      15.36      78.34
C       8.05      14.54      77.33
C       8.21      14.84      75.98
C       8.90      13.21      47.80
C      10.26      13.15      48.03
C       8.03      13.67      41.47
C       8.47      12.97      55.69
C       9.50      11.18      57.71
C       9.76      10.92      56.35
C       9.26      11.82      55.38
C       0.13       0.32      54.67
C      15.14       1.57      54.98
C      14.59       2.43      54.00
C       8.12      13.76      22.04
C       0.46       0.64      30.31
C       0.23       0.51      28.94
C      12.58       6.29      56.39
C      12.99       5.54      55.26
C      13.67       4.32      55.37
C       0.54       0.24      17.58
C       0.13       1.13      16.55
C      15.09       2.32      16.74
C       0.45       0.48      18.95
C       0.27       0.12      41.47
C       0.66      26.50      55.69
C       1.69      24.71      57.71
C       1.94      24.45      56.35
C       1.44      25.35      55.38
C       7.94      13.85      54.67
C       7.33      15.10      54.98
C       6.78      15.96      54.00
C       0.30       0.23      22.03
C       8.26      14.17      30.31
C       8.04      14.04      28.94
C       4.77      19.82      56.39
C       5.18      19.07      55.27
C       5.86      17.85      55.38
C       8.33      13.79      17.59
C       7.89      14.69      16.57
C       7.25      15.88      16.80
C       8.27      14.01      18.96
C       8.19      13.33      68.89
C       0.38      26.86      68.89
C      10.29      13.74      10.91
C      10.68      13.77       9.55
C       1.63       2.48      36.97
C       1.86       2.79      38.33
C       2.71       0.04      85.25
C       1.57       2.72      26.47
C       1.67       3.07      25.11
C       2.21       1.27      62.22
C       2.99       0.14       9.54
C       9.43      16.02      36.97
C       9.65      16.33      38.33
C      10.56      13.56      85.23
C       9.38      16.25      26.47
C       9.48      16.60      25.11
C      10.02      14.80      62.22
C       0.28       0.14      10.24
C      12.77      13.83       8.17
C       4.81      26.96      86.62
C       2.61       4.91      23.69
C       5.09       0.29       8.17
C      12.66      13.43      86.61
C      10.42      18.44      23.70
C       0.45      26.71      61.55
C       7.95      13.71      10.24
C       8.26      13.18      61.55
C       7.25      13.73       7.81
C      15.47       0.40       6.42
C      14.49       0.60       5.41
C       5.22      13.76       5.74
C       4.84      13.80       7.10
C       5.86      13.81       8.09
C       8.29      13.03      70.28
C       8.65      12.47      67.86
C       9.28      11.26      68.22
C       9.44      10.91      69.58
C       8.93      11.78      70.57
C      15.59       0.38      71.32
C      14.87       1.58      71.04
C      14.36       2.45      72.03
C      14.58       2.13      73.39
C      15.29       0.97      73.75
C       0.15       0.12      72.72
C       7.88      13.39      40.07
C       7.21      12.17      39.79
C       6.71      11.29      40.78
C       6.87      11.64      42.14
C       7.53      12.83      42.50
C       8.24      13.17      57.09
C       8.75      12.30      58.09
C      14.66       2.06      52.64
C      15.28       0.85      52.26
C       0.16      27.05      53.27
C      14.89       0.09      86.93
C       7.41      13.73      88.33
C       6.41      13.73      89.33
C      12.81       0.11      88.94
C      12.47       0.01      87.57
C      13.50      27.04      86.61
C       7.85      13.76      84.51
C       7.86      13.57      23.43
C       7.07      12.41      23.74
C       6.60      11.51      22.76
C       6.90      11.75      21.40
C       7.64      12.89      21.02
C       7.37      13.62      92.80
C      14.67       1.40       0.98
C      14.76       0.26       1.81
C       7.46      12.59       0.05
C       7.68      11.26      93.51
C       7.58      13.48      91.43
C      14.23       0.22       3.08
C       7.24      11.88      63.30
C       8.02      12.52      64.28
C       7.93      12.18      65.63
C      15.14       1.09      31.28
C      13.88       1.57      31.00
C       9.29       0.50       8.54
C      15.00      13.85       7.11
C      14.18      13.85       8.26
C       8.45       0.39       9.68
C       8.93       0.37      10.99
C      10.70       0.51       8.58
C      11.12       7.86      70.96
C      12.13       6.16      69.59
C      12.55       5.44      70.73
C      11.52       7.14      72.12
C      11.25       7.55      73.42
C      10.43       9.09      70.98
C      13.26       4.23      70.65
C       3.65       5.78      39.71
C       4.60       7.51      38.34
C       5.02       8.23      39.48
C       4.07       6.49      40.87
C       3.86       6.04      42.17
C       2.93       4.56      39.73
C       5.70       9.45      39.40
C       1.23      13.39      86.21
C       7.07      26.93      87.61
C       6.21      26.93      86.50
C       0.39      13.38      85.07
C       0.85      13.36      83.77
C       2.65      13.41      86.17
C       3.30       6.15      23.74
C       4.27       7.84      25.15
C       4.71       8.56      24.03
C       3.72       6.88      22.60
C       3.49       6.47      21.29
C       5.43       9.76      24.13
C       7.71      13.94      80.06
C       7.16      13.10      79.05
C       6.46      11.93      79.28
C       7.55      13.78      81.44
C       0.11      26.85      48.81
C       6.23      13.42      47.09
C       7.21      13.31      46.08
C       0.32      26.81      50.19
C       6.87      13.29      44.73
C      15.18       0.31       7.82
C       7.56      13.65       6.41
C       6.59      13.68       5.39
C      13.14       0.73       5.81
C      12.77       0.58       7.16
C      13.79       0.36       8.13
C       0.48      26.56      70.28
C       0.84      26.00      67.86
C       1.47      24.79      68.22
C       1.63      24.44      69.58
C       1.12      25.31      70.57
C       7.78      13.91      71.32
C       7.06      15.10      71.04
C       6.55      15.98      72.03
C       6.77      15.66      73.39
C       7.48      14.49      73.74
C       7.96      13.65      72.72
C       0.11      26.90      40.07
C      15.05      25.68      39.79
C      14.55      24.80      40.79
C      14.73      25.14      42.14
C      15.40      26.34      42.50
C       0.43      26.69      57.09
C       0.93      25.83      58.09
C       6.85      15.59      52.64
C       7.46      14.38      52.26
C       7.98      13.53      53.28
C       7.12      13.62      86.93
C      15.17       0.19      88.33
C      14.16       0.19      89.33
C       5.06      13.64      88.94
C       4.71      13.53      87.58
C       5.74      13.50      86.61
C       0.01       0.24      84.52
C       0.04       0.04      23.43
C      14.88      25.94      23.74
C      14.41      25.04      22.76
C      14.70      25.28      21.40
C      15.44      26.42      21.02
C      15.25       0.09      92.77
C       6.88      15.19       0.83
C       6.96      14.18       1.81
C      15.37      25.99      93.61
C       0.02      24.71      93.18
C      15.44       0.10      91.40
C       6.71      14.44       3.15
C      15.05      25.41      63.30
C       0.21      26.05      64.28
C       0.12      25.70      65.63
C       7.32      14.62      31.28
C       6.06      15.10      30.99
C       1.36      13.88       8.48
C       7.33       0.48       7.14
C       6.49       0.36       8.27
C       0.53      13.90       9.64
C       1.02      13.93      10.94
C       2.77      13.87       8.50
C       3.31      21.39      70.96
C       4.32      19.69      69.59
C       4.73      18.97      70.73
C       3.71      20.67      72.12
C       3.43      21.08      73.42
C       2.62      22.62      70.98
C       5.45      17.76      70.65
C      11.45      19.31      39.72
C      12.42      21.04      38.35
C      12.84      21.75      39.49
C      11.88      20.01      40.88
C      11.67      19.57      42.17
C      10.73      18.09      39.74
C      13.53      22.97      39.41
C       9.00      26.92      86.19
C      14.91      13.39      87.63
C      14.06      13.40      86.50
C       8.15      26.91      85.05
C       8.60      26.89      83.74
C      10.41      26.95      86.14
C      11.11      19.67      23.74
C      12.08      21.36      25.15
C      12.52      22.09      24.03
C      11.53      20.41      22.60
C      11.30      20.00      21.29
C      13.24      23.29      24.14
C      15.52       0.41      80.07
C      14.96      26.63      79.05
C      14.26      25.46      79.28
C      15.35       0.25      81.44
C       7.90      13.32      48.81
C      14.08      26.95      47.08
C      15.07      26.84      46.07
C       8.12      13.28      50.19
C      14.74      26.83      44.72
H       0.81       0.33       6.08
H      10.00      13.82       7.60
H      14.64       3.70      74.45
H       0.73       0.96      41.79
H       8.36      13.88      88.65
H       1.99      26.92      87.19
H       0.90       0.98      21.72
H       0.76       0.81      59.89
H      11.98       8.60      52.31
H      10.62       9.59      54.03
H       9.58      11.42      15.64
H       9.35      12.06      13.26
H       0.88       2.15      75.74
H       1.18      26.45      50.54
H       8.53      13.55       6.09
H       2.30       0.22       7.59
H       6.83      17.23      74.45
H       8.48      14.53      41.79
H       0.50       0.32      88.66
H       9.85      13.39      87.17
H       8.72      14.51      21.72
H       6.66      16.16       1.07
H       8.57      14.33      59.89
H       4.17      22.12      52.32
H       2.81      23.12      54.03
H       1.86      24.92      15.69
H       1.68      25.53      13.30
H       8.69      15.68      75.73
H       8.99      12.93      50.53
H      15.60       0.68      68.57
H      10.84      10.63      58.93
H       9.52      11.63      54.41
H      15.11       1.91      55.94
H      12.76       5.97      57.34
H      13.89       3.94      56.30
H       0.22       1.40      19.26
H       7.79      14.21      68.57
H       3.03      24.16      58.93
H       1.71      25.15      54.41
H       7.30      15.44      55.94
H       4.95      19.50      57.34
H       6.08      17.47      56.30
H       8.08      14.93      19.28
H      11.62      12.91      11.98
H       1.58       2.16      40.28
H       1.37       4.16      27.69
H       1.18       2.52      23.18
H       2.69       1.17      61.36
H      10.81      13.54      32.32
H      10.24      14.19      34.64
H       1.32       2.67      78.12
H       2.83      26.99      48.92
H       3.95      26.30      11.95
H       9.37      15.69      40.28
H       9.18      17.68      27.70
H       8.99      16.04      23.18
H      10.51      14.70      61.37
H       3.02       0.01      32.31
H       2.45       0.66      34.63
H       9.13      16.20      78.11
H      10.62      13.48      48.90
H       6.69      15.96      17.61
H      11.42      14.65      82.80
H      14.50       2.40      17.53
H       3.01       3.16      35.86
H       3.59       1.12      82.82
H      12.32      13.81       7.26
H       2.69       4.14      40.63
H       4.38      26.96      87.55
H       2.39       4.49      22.79
H      10.81      16.69      35.87
H       4.65       0.32       7.25
H      10.48      17.68      40.63
H      12.21      13.43      87.53
H      10.20      18.01      22.80
H       8.47      12.83      73.04
H       0.66      26.36      73.04
H       0.54      26.57      91.04
H      14.35       2.30       1.34
H      14.94       0.17      10.57
H       3.96      14.62       4.63
H       5.53      13.89       9.05
H       9.17       9.72      67.12
H       9.03      11.47      71.53
H      14.66       1.83      70.08
H       7.61      13.25      37.32
H       5.49      10.90      43.21
H       7.09      11.86      38.83
H      15.44       0.39      57.42
H       8.33      12.63      52.96
H      13.22       2.63      51.56
H       6.90      13.91      84.20
H      11.61      26.30      90.12
H      13.21      26.91      85.64
H       7.94      13.27      26.18
H       7.12      10.21      20.33
H       6.79      12.22      24.70
H       7.48      10.93      92.60
H       8.14      12.72      91.13
H      13.60      26.52       3.24
H       6.56      11.16      63.54
H       7.31      11.44      65.88
H      13.62       1.74      30.06
H      14.92       0.33      28.65
H      14.61      13.83       6.17
H       9.64       1.02      11.22
H      11.19       0.41       9.47
H      12.34       5.83      68.65
H      10.30       7.80      73.60
H      10.19       9.51      71.88
H      13.50       3.85      69.73
H       4.78       7.86      37.40
H       4.09       5.09      42.36
H       5.91       9.85      38.48
H       6.70      26.94      88.57
H       1.58      12.73      83.56
H       3.13      13.42      85.27
H       4.45       8.16      26.10
H       2.55       6.20      21.09
H       5.64      10.15      25.06
H       6.59      11.46      80.14
H       6.84      13.17      81.76
H       5.24      13.49      46.86
H       5.90      13.30      44.49
H       6.99      13.67      10.56
H      11.65       0.28       4.72
H      13.47       0.24       9.08
H       1.36      23.25      67.12
H       1.22      25.00      71.53
H       6.85      15.36      70.08
H      15.47      26.75      37.32
H      13.35      24.42      43.22
H      14.91      25.37      38.83
H       7.64      13.92      57.42
H       0.52      26.15      52.96
H       5.40      16.16      51.57
H      14.68       0.39      84.20
H       3.92      12.77      90.18
H       5.44      13.36      85.65
H       0.13      26.80      26.18
H      14.93      23.74      20.33
H      14.60      25.75      24.70
H      15.62      24.53      92.21
H       6.41      15.36       3.40
H      14.37      24.69      63.54
H      15.13      24.96      65.88
H       5.81      15.27      30.05
H       7.11      13.85      28.64
H       6.95       0.51       6.19
H       1.75      14.59      11.13
H       3.26      13.86       9.40
H       4.53      19.36      68.65
H       2.49      21.33      73.60
H       2.38      23.04      71.88
H       5.69      17.38      69.74
H      12.60      21.39      37.40
H      11.90      18.62      42.36
H      13.74      23.37      38.49
H      14.53      13.40      88.58
H       9.33      26.25      83.53
H      10.90      26.96      85.24
H      12.26      21.69      26.10
H      10.37      19.73      21.09
H      13.45      23.68      25.06
H      14.40      24.98      80.14
H      14.63      26.70      81.76
H      13.08      27.02      46.84
H      13.77      26.84      44.47
N       0.85       0.10      12.54
N       0.64       1.02      35.34
N       8.59      13.92      82.20
N       0.98       1.23      28.16
N       1.09      26.99      63.84
N       9.49      13.79      30.76
N      12.68       6.06      54.05
N       0.36       0.77      15.25
N       0.59       1.50      79.64
N       8.50      13.22      46.50
N       8.53      13.72      12.54
N       8.43      14.57      35.34
N       0.76       0.40      82.20
N       8.79      14.75      28.16
N       8.90      13.46      63.84
N       1.69       0.26      30.76
N       4.87      19.59      54.05
N       8.09      14.34      15.27
N       8.40      15.03      79.64
N       0.73      26.74      46.50
N       8.51      12.84      66.58
N      13.98       3.61      54.26
N      10.47       9.80      56.06
N      15.55       1.13      32.59
N      11.91       7.45      56.20
N       8.93      12.64      17.16
N       0.70      26.37      66.58
N       6.17      17.14      54.27
N       2.65      23.33      56.07
N       7.72      14.66      32.58
N       4.10      20.98      56.20
N       1.16      26.15      17.19
N       4.04      27.03      85.52
N      11.89      13.50      85.50
N      12.01      13.81       9.29
N       2.54       3.94      38.60
N       2.29       4.25      24.83
N       4.32       0.20       9.28
N      10.34      17.47      38.60
N      10.10      17.78      24.83
N       3.51      13.83       7.37
N      14.88       0.66       4.12
N      15.48       0.61      75.02
N      13.66       3.59      71.77
N      10.08       9.74      69.84
N       7.75      13.17      43.77
N       6.07      10.12      40.52
N      15.28       0.56      50.96
N       8.50      12.44      59.40
N      11.15      27.01      87.28
N       6.65      13.90      90.63
N       7.90      13.03      19.72
N       5.88      10.39      23.02
N      14.91       1.26      93.37
N       7.24      12.92       1.36
N       7.39      12.24      62.00
N       0.73      13.86       7.27
N       7.11       0.33       9.48
N      11.45       7.32      69.75
N      12.21       5.97      71.94
N       3.94       6.34      38.50
N       4.73       7.67      40.69
N       8.41      26.93      87.41
N      14.66      13.40      85.28
N       3.60       6.67      24.96
N       4.41       8.04      22.81
N       7.36      13.44      77.75
N      14.45      26.94      48.38
N      11.44       0.61       7.45
N       6.98      13.60       4.11
N       7.67      14.14      75.02
N       5.85      17.11      71.77
N       2.27      23.27      69.84
N      15.62      26.67      43.78
N      13.90      23.64      40.53
N       7.46      14.09      50.96
N       0.69      25.96      59.40
N       3.38      13.47      87.30
N      14.40       0.30      90.65
N       0.08      26.55      19.72
N      13.69      23.92      23.03
N       7.08      14.88      93.25
N      15.08      26.14       1.20
N      15.20      25.77      62.00
N       8.68       0.53       7.32
N      14.80      13.88       9.46
N       3.64      20.85      69.75
N       4.40      19.50      71.94
N      11.75      19.87      38.51
N      12.55      21.19      40.70
N       0.63      13.39      87.44
N       6.80      26.93      85.27
N      11.41      20.20      24.96
N      12.22      21.56      22.81
N      15.17      26.97      77.75
N       6.61      13.41      48.39
O      12.01       6.88      51.60
O       0.13       3.32      16.51
O       3.10      25.73      47.58
O       4.20      20.40      51.60
O       7.91      16.88      16.55
O      10.88      12.21      47.55
O       9.95      10.30      58.66
O       2.14      23.83      58.66
O      11.24      13.81      11.89
O       2.05       3.34      36.00
O       3.33       0.18      82.94
O       2.10       3.55      27.42
O       2.88       1.76      63.12
O       3.57       0.15      11.87
O       9.86      16.87      36.00
O      11.17      13.71      82.92
O       9.91      17.08      27.42
O      10.69      15.29      63.12
O      11.82       7.02      74.35
O       4.01      20.55      74.35
O      12.19       1.08       4.90
O       4.27      13.70       4.77
O       9.80      10.46      67.24
O      14.05       2.92      74.37
O       6.46      10.78      43.12
O      14.16       2.89      51.68
O      11.82       0.17      89.88
O       6.43      10.90      20.44
O       8.65      10.74       0.32
O      12.95       1.23      31.72
O       8.17       0.10      11.91
O       4.06       6.80      43.10
O       0.08      13.56      82.84
O       4.07       7.03      20.37
O       5.33      11.85      78.82
O       1.99      23.99      67.24
O       6.23      16.45      74.37
O      14.32      24.29      43.12
O       6.34      16.42      51.68
O       4.08      13.70      89.89
O      14.24      24.42      20.44
O       0.85      24.07       0.08
O       5.13      14.76      31.71
O       0.28      13.73      11.89
O      11.87      20.33      43.11
O       7.83       0.04      82.82
O      11.89      20.56      20.37
O      13.14      25.38      78.82
