61

H       3.47       4.97       4.05
H       4.53       3.66       5.90
H      -1.44      11.61       4.16
H      -0.35      10.36       2.27
H       2.67       7.47      -5.82
H       1.56       7.16      -3.60
H       5.41       7.22      -1.68
H       6.50       7.67      -3.88
H       2.48       0.12       4.59
H       1.44       1.41       2.71
H      -1.56       6.64       4.07
H      -2.70       7.89       5.90
H      -0.86       5.67      -5.94
H       0.27       5.41      -3.72
H      -3.52       4.41      -1.93
H      -4.61       4.56      -4.17
C       3.59       1.81       5.34
C       2.41       3.27       3.25
C       3.27       3.91       4.17
C       3.86       3.18       5.19
C      -1.46      10.52       4.13
C      -0.85       9.83       3.08
C       4.65       7.57      -4.99
C       3.25       7.44      -4.90
C       2.64       7.26      -3.68
C       3.42       7.13      -2.50
C       4.81       7.31      -2.58
C       5.42       7.55      -3.81
C       2.70       1.18       4.45
C       2.12       1.90       3.41
C      -2.12       9.82       5.15
C      -0.87       8.42       3.06
C      -1.54       7.72       4.09
C      -2.17       8.42       5.12
C      -2.80       5.14      -5.18
C      -1.42       5.37      -5.06
C      -0.80       5.23      -3.83
C      -1.56       4.93      -2.67
C      -2.93       4.66      -2.81
C      -3.55       4.74      -4.06
C       0.89       5.83       0.43
C      -0.24       7.65       2.05
C       0.28       6.87       1.27
C      -0.12       5.29      -0.51
C      -0.87       5.04      -1.43
C       2.72       6.75      -1.32
C       1.96       6.38      -0.44
C       1.85       4.04       2.20
C       1.43       4.80       1.34
C      -3.47       5.47      -6.47
C      -2.79      10.54       6.26
C       4.29       1.03       6.40
C       5.29       7.47      -6.33
O      -4.61       4.96      -6.74
O      -2.85       6.33      -7.20
O      -3.67       9.86       6.91
O      -2.48      11.76       6.49
O       3.98      -0.20       6.54
O       5.18       1.66       7.09
O       4.64       6.72      -7.16
O       6.42       8.02      -6.55
