13

C      13.09      13.22       7.63
N      13.51      13.93       8.70
C      11.76      13.27       7.19
C      11.29      14.80       8.99
C      12.63      14.71       9.37
C      10.85      14.07       7.89
H      13.83      12.61       7.13
H       9.82      14.13       7.56
H      10.61      15.43       9.56
H      13.03      15.24      10.22
C      11.34      12.51       5.96
O      10.25      12.79       5.41
O      12.18      11.60       5.56
