13

C       5.24       0.34      13.36
C       5.72      -0.86      12.84
C       5.33      -2.07      13.44
C       4.46      -2.03      14.53
C       4.00      -0.80      14.98
N       4.40       0.37      14.42
C       6.60      -0.86      11.61
O       6.91      -1.93      11.06
O       6.94       0.33      11.20
H       5.52       1.29      12.93
H       5.71      -3.01      13.06
H       4.12      -2.94      15.01
H       3.33      -0.70      15.83
