13

H      11.71       4.16       1.53
H      15.34       6.48       1.67
H      16.08       5.07       3.61
C      12.68       4.39       1.96
C      13.47       5.41       1.44
H      14.54       3.26       4.42
C      15.12       4.90       3.12
C      14.28       3.89       3.58
C      14.71       5.68       2.04
C      13.03       6.17       0.21
N      13.08       3.65       3.01
O      13.80       6.98      -0.34
O      11.83       5.88      -0.20
