38

C       2.13       9.83      11.94
C       7.24      10.50      12.41
H       5.60      10.74       9.51
C       7.25      11.89      10.08
C       2.07      12.26      10.68
H       3.45      12.09      13.46
H       5.15      12.07      13.97
H       4.17      13.89      12.18
H       5.85      13.39      12.21
O       3.47       9.21      14.16
O       5.75       9.21      14.16
O       1.62       8.79      11.53
O       1.43      10.66      12.81
O       8.13       9.71      12.17
O       7.44      11.57      13.29
O       5.86      14.04       9.25
O       1.07      11.79      10.17
O       1.97      13.36      11.55
O       7.89      11.40       9.16
O       7.83      12.82      10.94
H       3.79       9.42      10.76
O       3.59      14.04       9.25
H       5.96       9.34      11.21
H       0.47      10.38      12.90
H       8.40      11.65      13.61
H       1.01      13.65      11.70
H       8.83      12.86      10.86
H       3.35      11.16       9.43
C       4.61       9.54      13.62
C       3.48      10.27      11.42
C       5.94      10.38      11.63
C       4.72      13.53       9.62
C       3.38      11.53      10.48
C       5.88      11.35      10.40
C       4.49      11.94      13.09
C       4.62      10.51      12.48
C       4.71      12.40      10.61
C       4.82      13.00      12.04
