17

N      10.59       8.85      12.57
C      11.34       7.74      15.86
Co       9.06       9.06      14.17
N       7.53       9.27      12.57
C      11.15       9.88      12.02
C      10.80       9.77      16.64
N       7.56       9.29      15.75
N      10.56       8.83      15.75
C      10.94       7.72      12.09
H       7.66       6.39      14.72
C       6.97       8.24      12.02
C       7.18      10.40      12.09
C       6.78      10.38      15.86
S       8.71       6.63      14.20
S       9.41      11.48      14.20
C       7.32       8.34      16.64
H      10.46      11.73      14.72
