17

Co       9.06       9.06      22.64
N       9.27      10.59      24.23
C       9.88       6.97      24.79
C       7.74       6.78      20.95
C       7.72       7.18      24.72
H       6.39      10.46      22.09
S       6.63       9.41      22.61
S      11.48       8.71      22.61
C       9.77       7.32      20.17
C       8.24      11.15      24.79
C      10.38      11.34      20.95
N       8.85       7.53      24.23
N       9.29      10.56      21.06
C      10.40      10.94      24.72
C       8.34      10.80      20.17
H      11.73       7.66      22.09
N       8.83       7.56      21.06
