16

O       0.22      -2.54      19.00
O       0.24      -3.34      21.69
O      -0.89      -5.08      19.72
V       1.01      -4.11      20.00
V      -2.46      -4.41      19.91
C       2.56      -6.42      21.25
C       2.53      -5.36      17.69
C      -0.95      -2.10      18.66
C      -0.93      -3.20      22.23
O       1.42      -5.03      18.26
O      -3.22      -5.99      20.91
O      -2.05      -3.50      21.65
O      -3.24      -5.18      18.22
O      -2.07      -2.69      18.94
O       1.44      -5.84      20.97
O       2.57      -3.45      20.19
