552

Cu      -0.00      12.95      18.33
Cu      15.28      38.01      16.33
Cu      22.43       0.00       0.00
Cu      19.99       0.00       0.00
Cu      15.28      31.16       6.65
Cu      -0.00       6.11       8.64
Cu      -7.15      26.47       0.00
Cu      10.58       0.00       0.00
Cu      -4.06       7.04       0.00
Cu      25.27       9.16       0.00
Cu      11.22      24.12       6.65
Cu       9.99      23.42       8.64
Cu      19.35      19.43       0.00
Cu      -9.99      17.31       0.00
Cu       4.06      19.99      18.33
Cu       5.29      20.70      16.33
Cu      19.35      24.12       6.65
Cu      -9.99      23.42       8.64
Cu      11.22      19.43       0.00
Cu       9.99      17.31       0.00
Cu      -4.06      19.99      18.33
Cu      25.27      20.70      16.33
Cu       4.06       7.04       0.00
Cu       5.29       9.16       0.00
H      12.25      35.11      17.28
H       8.45      31.42      19.21
H      19.08      18.27      20.81
H      18.53      19.45      15.32
H     -12.25      30.72      11.07
H      -8.45      27.67      13.91
H      11.48       4.13       0.80
H      12.04       9.70       1.52
H      21.24       7.88       0.79
H      16.15       5.58       1.52
H      10.08      26.97      11.07
H      10.82      31.79      13.91
H     -10.08      33.86      20.82
H     -10.82      32.79      15.32
H       9.32      19.52      17.28
H      14.41      18.08      19.21
H      17.45      21.72      11.07
H      12.90      19.95      13.91
H      13.12      14.46       0.80
H      17.66      11.20       1.52
H      -6.29      24.78      17.28
H      -7.58      29.92      19.21
H       6.29      27.28      20.82
H       7.58      27.17      15.32
H       5.20      10.26       4.16
H       4.46      11.32       9.66
H      -5.96      24.59       7.70
H      -0.87      26.04       5.77
H       5.96      36.24      24.18
H       0.87      38.54      23.46
H      25.37      17.15      13.91
H      26.11      12.33      11.07
H      21.57      16.84       4.16
H      22.86      16.95       9.66
H       9.00      19.34       7.70
H       7.70      14.20       5.77
H      -2.17      29.66      24.18
H       2.38      32.92      23.46
H       2.17      22.40      13.91
H      -2.38      24.17      11.07
H       3.80      25.84       4.16
H       3.25      24.67       9.66
H      27.53       9.01       7.70
H      23.73      12.70       5.77
H      -3.80      39.99      24.18
H      -3.25      34.42      23.46
H       3.03      13.40      13.91
H       6.84      16.45      11.07
H       3.03       9.01       7.70
H       6.84      12.70       5.77
H      -3.80      25.84       4.16
H      -3.25      24.67       9.66
H      27.53      13.40      13.91
H      23.73      16.45      11.07
H       3.80      39.99      24.18
H       3.25      34.42      23.46
H      -5.96      36.24      24.18
H      -0.87      38.54      23.46
H       5.20      17.15      13.91
H       4.46      12.33      11.07
H      25.37      10.26       4.16
H      26.11      11.32       9.66
H       5.96      24.59       7.70
H       0.87      26.04       5.77
H      -2.17      22.40      13.91
H       2.38      24.17      11.07
H       2.17      29.66      24.18
H      -2.38      32.92      23.46
H      21.57      19.34       7.70
H      22.86      14.20       5.77
H       9.00      16.84       4.16
H       7.70      16.95       9.66
H      10.08      33.86      20.82
H      10.82      32.79      15.32
H      21.24      19.52      17.28
H      16.15      18.08      19.21
H       9.32       7.88       0.80
H      14.41       5.58       1.52
H     -10.08      26.97      11.07
H     -10.82      31.79      13.91
H      -6.29      27.28      20.82
H      -7.58      27.17      15.32
H       6.29      24.78      17.28
H       7.58      29.92      19.21
H      17.45      14.46       0.80
H      12.90      11.20       1.52
H      13.12      21.72      11.07
H      17.66      19.95      13.91
H      11.48      18.27      20.82
H      12.03      19.45      15.32
H     -12.25      35.11      17.28
H      -8.45      31.42      19.21
H      19.08       4.13       0.80
H      18.53       9.70       1.52
H      12.25      30.72      11.07
H       8.45      27.67      13.91
H      12.59      37.35      20.93
H      23.36      18.70      20.93
H     -12.59      28.03       7.73
H       7.20       4.16       0.36
H      23.36       4.16       0.36
H      12.59      28.03       7.73
H     -12.59      37.35      20.93
H       7.20      18.70      20.93
H      15.28      23.36       7.73
H      15.28      18.15       0.36
H      -4.51      23.36      20.93
H       4.51      23.36      20.93
H       2.69       6.76       4.05
H      -8.08      25.42       4.05
H       8.08      39.96      24.62
H      27.87      16.09      17.25
H      19.79      20.76       4.05
H      10.77      20.76       4.05
H       0.00      25.96      24.62
H       0.00      20.76      17.25
H       8.08      25.42       4.05
H      27.87       6.76       4.05
H      -8.08      39.96      24.62
H       2.69      16.09      17.25
C      13.50      37.22      18.39
C      12.51      36.32      19.04
C      11.96      35.25      18.32
C      21.21      18.11      22.47
C      21.22      18.44      21.01
C      20.01      18.50      20.30
C     -13.50      30.38       8.70
C     -12.51      29.47       9.34
C     -11.96      29.79      10.59
C       9.36       2.52       0.40
C       9.35       4.00       0.57
C      10.55       4.69       0.75
C      23.71       6.85       0.40
C      22.42       6.10       0.57
C      21.23       6.79       0.75
C      11.00      26.06       8.70
C      11.30      27.37       9.34
C      10.75      27.69      10.59
C     -11.00      35.78      22.47
C     -11.30      35.62      21.01
C     -10.75      34.55      20.30
C       6.86      19.55      18.39
C       8.14      19.14      19.04
C       9.34      19.20      18.32
C      17.78      22.97       8.70
C      16.49      22.57       9.34
C      16.50      21.93      10.59
C      12.78      17.11       0.40
C      14.07      16.37       0.57
C      14.07      14.99       0.75
C      -5.08      22.64      18.39
C      -5.36      23.95      19.04
C      -6.02      24.96      18.32
C       5.08      25.52      22.47
C       5.37      25.34      21.01
C       6.02      26.36      20.30
C       4.28       8.34       2.51
C       3.98       8.50       3.97
C       4.54       9.57       4.68
C      -8.42      24.57       6.59
C      -7.14      24.98       5.94
C      -5.94      24.92       6.66
C       8.42      37.27      24.58
C       7.14      38.02      24.41
C       5.94      37.32      24.23
C      26.28      18.06      16.28
C      26.58      16.74      15.64
C      26.03      16.43      14.39
C      20.36      18.60       2.51
C      20.65      18.77       3.97
C      21.30      17.76       4.68
C      10.20      21.48       6.59
C       9.92      20.17       5.94
C       9.27      19.16       6.66
C      -2.50      27.01      24.58
C      -1.21      27.74      24.41
C      -1.21      29.13      24.23
C       2.50      21.15      16.28
C       1.21      21.55      15.64
C       1.21      22.18      14.39
C       5.92      26.01       2.51
C       5.93      25.67       3.97
C       4.73      25.62       4.68
C      28.78       6.89       6.59
C      27.79       7.80       5.94
C      27.24       8.87       6.66
C      -5.92      41.60      24.58
C      -5.93      40.12      24.41
C      -4.73      39.43      24.23
C       1.78      13.73      16.28
C       2.78      14.65      15.64
C       3.32      14.33      14.39
C       1.78       6.89       6.59
C       2.78       7.80       5.94
C       3.32       8.87       6.66
C      -5.92      26.01       2.51
C      -5.93      25.67       3.97
C      -4.73      25.62       4.68
C      28.78      13.73      16.28
C      27.79      14.65      15.64
C      27.24      14.33      14.39
C       5.92      41.60      24.58
C       5.93      40.12      24.41
C       4.73      39.43      24.23
C      -8.42      37.27      24.58
C      -7.14      38.02      24.41
C      -5.94      37.32      24.23
C       4.28      18.06      16.28
C       3.98      16.74      15.64
C       4.54      16.43      14.39
C      26.29       8.34       2.51
C      26.58       8.50       3.97
C      26.03       9.57       4.68
C       8.42      24.57       6.59
C       7.14      24.98       5.94
C       5.94      24.92       6.66
C      -2.50      21.15      16.28
C      -1.21      21.55      15.64
C      -1.21      22.18      14.39
C       2.50      27.01      24.58
C       1.21      27.74      24.41
C       1.21      29.13      24.23
C      20.36      21.48       6.59
C      20.65      20.17       5.94
C      21.30      19.16       6.66
C      10.20      18.60       2.51
C       9.92      18.77       3.97
C       9.27      17.76       4.68
C      11.00      35.78      22.47
C      11.30      35.62      21.01
C      10.75      34.55      20.30
C      23.71      19.55      18.39
C      22.42      19.14      19.04
C      21.23      19.20      18.32
C       6.86       6.85       0.40
C       8.14       6.10       0.57
C       9.34       6.79       0.75
C     -11.00      26.06       8.70
C     -11.30      27.37       9.34
C     -10.75      27.69      10.59
C      -5.08      25.52      22.47
C      -5.37      25.34      21.01
C      -6.02      26.36      20.30
C       5.08      22.64      18.39
C       5.36      23.95      19.04
C       6.02      24.96      18.32
C      17.78      17.11       0.40
C      16.49      16.37       0.57
C      16.50      14.99       0.75
C      12.78      22.97       8.70
C      14.07      22.57       9.34
C      14.07      21.93      10.59
C       9.36      18.11      22.47
C       9.35      18.44      21.01
C      10.55      18.50      20.30
C     -13.50      37.23      18.39
C     -12.51      36.32      19.04
C     -11.96      35.25      18.32
C      21.21       2.52       0.40
C      21.22       4.00       0.57
C      20.01       4.69       0.75
C      13.50      30.38       8.70
C      12.51      29.47       9.34
C      11.96      29.79      10.59
C      12.17      36.52      20.38
C      11.06      34.36      18.94
C      10.50      33.28      18.21
C      10.05      32.32      17.59
C       9.58      31.19      16.91
C      22.43      18.75      20.38
C      20.00      18.86      18.94
C      18.79      18.92      18.21
C      17.73      19.01      17.59
C      16.52      19.18      16.91
C     -12.17      28.27       8.70
C     -11.06      28.91      11.22
C     -10.50      29.23      12.48
C     -10.05      29.49      13.59
C      -9.58      29.76      14.89
C       8.14       4.70       0.50
C      10.56       6.10       0.86
C      11.78       6.80       1.05
C      12.83       7.41       1.18
C      14.05       8.11       1.25
C      22.43       4.70       0.50
C      20.00       6.10       0.86
C      18.79       6.80       1.05
C      17.73       7.41       1.18
C      16.52       8.11       1.25
C      12.17      28.27       8.70
C      11.06      28.91      11.22
C      10.50      29.23      12.48
C      10.05      29.49      13.59
C       9.58      29.76      14.89
C     -12.17      36.52      20.38
C     -11.06      34.36      18.94
C     -10.50      33.28      18.21
C     -10.05      32.32      17.59
C      -9.58      31.19      16.91
C       8.14      18.75      20.38
C      10.56      18.86      18.94
C      11.78      18.92      18.21
C      12.83      19.01      17.59
C      14.05      19.18      16.91
C      15.28      22.87       8.70
C      15.28      21.59      11.22
C      15.28      20.94      12.48
C      15.28      20.42      13.59
C      15.28      19.89      14.89
C      15.28      17.08       0.50
C      15.28      14.27       0.86
C      15.28      12.87       1.05
C      15.28      11.65       1.18
C      15.28      10.25       1.25
C      -5.02      24.14      20.38
C      -6.34      26.19      18.94
C      -6.99      27.21      18.21
C      -7.60      28.08      17.59
C      -8.35      29.05      16.91
C       5.02      24.14      20.38
C       6.34      26.19      18.94
C       6.99      27.21      18.21
C       7.60      28.08      17.59
C       8.35      29.05      16.91
C       3.12       7.60       4.60
C       4.23       9.76       6.04
C       4.79      10.84       6.77
C       5.24      11.80       7.38
C       5.70      12.93       8.07
C      -7.15      25.37       4.60
C      -4.72      25.25       6.04
C      -3.50      25.20       6.77
C      -2.45      25.11       7.38
C      -1.23      24.94       8.07
C       7.15      39.42      24.48
C       4.72      38.02      24.11
C       3.51      37.32      23.92
C       2.45      36.71      23.80
C       1.23      36.01      23.73
C      27.45      15.85      16.28
C      26.34      15.21      13.76
C      25.78      14.88      12.50
C      25.33      14.62      11.39
C      24.87      14.36      10.09
C      20.30      19.97       4.60
C      21.62      17.93       6.04
C      22.27      16.91       6.77
C      22.88      16.04       7.38
C      23.63      15.07       8.07
C      10.26      19.97       4.60
C       8.95      17.93       6.04
C       8.29      16.91       6.77
C       7.68      16.04       7.38
C       6.93      15.07       8.07
C       0.00      27.04      24.48
C       0.00      29.84      24.11
C       0.00      31.25      23.92
C       0.00      32.47      23.80
C       0.00      33.87      23.73
C       0.00      21.25      16.28
C       0.00      22.53      13.76
C       0.00      23.17      12.50
C       0.00      23.69      11.39
C       0.00      24.23      10.09
C       7.15      25.37       4.60
C       4.72      25.25       6.04
C       3.50      25.20       6.77
C       2.45      25.11       7.39
C       1.23      24.94       8.07
C      27.45       7.60       4.60
C      26.34       9.76       6.04
C      25.78      10.84       6.77
C      25.33      11.80       7.38
C      24.87      12.93       8.07
C      -7.15      39.42      24.48
C      -4.72      38.02      24.11
C      -3.51      37.32      23.92
C      -2.45      36.71      23.80
C      -1.23      36.01      23.73
C       3.12      15.85      16.28
C       4.23      15.21      13.76
C       4.79      14.88      12.50
C       5.24      14.62      11.39
C       5.70      14.36      10.09
C       8.75      30.24      17.57
C      16.51      19.63      15.56
C      -8.75      28.83      15.56
C      14.05       9.53       1.27
C      15.28       7.41       1.27
C       9.97      30.95      15.56
C      -9.97      30.95      15.56
C      15.28      18.92      17.57
C      14.05      19.63      15.56
C      16.51       9.53       1.27
C      -8.75      30.24      17.57
C       8.75      28.83      15.56
C       5.31      13.17       9.42
C       0.00      25.19       7.41
C       0.00      36.71      23.71
C      25.26      13.17       9.42
C      24.03      15.29       9.42
C       6.53      13.87       7.41
C       1.23      34.58      23.71
C      -1.23      24.48       9.42
C       1.23      24.48       9.42
C      24.03      13.87       7.41
C      -1.23      34.58      23.71
C       6.53      15.29       9.42
N       8.35      30.47      18.86
N      17.69      19.86      14.92
N      -8.35      27.69      14.92
N      12.87      10.22       1.27
N      15.28       6.04       1.27
N      10.76      31.87      14.92
N     -10.76      31.87      14.92
N      15.28      18.47      18.86
N      12.87      19.86      14.92
N      17.69      10.22       1.27
N      -8.35      30.47      18.86
N       8.35      27.69      14.92
N       4.52      12.25      10.06
N       0.00      25.65       6.12
N       0.00      38.08      23.71
N      26.04      12.25      10.06
N      23.63      16.43      10.06
N       6.93      13.64       6.12
N       2.41      33.90      23.71
N      -2.41      24.26      10.06
N       2.41      24.26      10.06
N      23.63      13.64       6.12
N      -2.41      33.90      23.71
N       6.93      16.43      10.06
O      13.90      38.23      19.07
O      13.89      36.91      17.20
O      22.35      17.99      23.04
O      20.06      17.98      23.03
O     -13.89      30.08       7.52
O     -13.89      31.40       9.39
O       8.22       1.94       0.33
O      10.50       1.94       0.33
O      24.78       6.15       0.33
O      23.63       8.12       0.33
O      11.47      25.87       7.52
O      10.32      25.22       9.39
O     -11.47      36.83      23.04
O     -10.32      34.85      23.03
O       5.79      19.39      19.07
O       6.94      20.04      17.20
O      17.71      23.47       7.52
O      18.85      22.80       9.39
O      12.85      18.38       0.33
O      11.71      16.40       0.33
O      -4.40      21.79      19.07
O      -5.54      22.46      17.20
O       4.40      24.59      23.04
O       5.54      26.58      23.03
O       3.81       7.29       1.94
O       4.96       9.26       1.95
O      -9.49      24.73       5.91
O      -8.35      24.08       7.78
O       9.49      37.97      24.65
O       8.35      35.99      24.65
O      26.75      18.25      17.45
O      25.60      18.90      15.59
O      19.69      19.52       1.94
O      20.82      17.54       1.95
O      10.88      22.33       5.91
O       9.74      21.66       7.78
O      -2.43      25.73      24.65
O      -3.57      27.71      24.65
O       2.43      20.65      17.45
O       3.57      21.32      15.59
O       7.06      26.13       1.94
O       4.78      26.14       1.95
O      29.18       5.88       5.91
O      29.17       7.20       7.78
O      -7.06      42.18      24.65
O      -4.78      42.17      24.65
O       1.39      14.04      17.45
O       1.39      12.72      15.59
O       1.39       5.88       5.91
O       1.39       7.20       7.78
O      -7.06      26.13       1.94
O      -4.78      26.14       1.95
O      29.18      14.04      17.45
O      29.17      12.72      15.59
O       7.06      42.18      24.65
O       4.78      42.17      24.65
O      -9.49      37.97      24.65
O      -8.35      35.99      24.65
O       3.82      18.25      17.45
O       4.96      18.90      15.59
O      26.75       7.29       1.94
O      25.60       9.26       1.95
O       9.49      24.73       5.91
O       8.35      24.08       7.78
O      -2.43      20.65      17.45
O      -3.57      21.32      15.59
O       2.43      25.73      24.65
O       3.57      27.71      24.65
O      19.69      22.33       5.91
O      20.82      21.66       7.78
O      10.88      19.52       1.94
O       9.74      17.54       1.95
O      11.47      36.83      23.04
O      10.32      34.85      23.03
O      24.78      19.39      19.07
O      23.63      20.04      17.20
O       5.79       6.15       0.33
O       6.93       8.12       0.33
O     -11.47      25.87       7.52
O     -10.32      25.22       9.39
O      -4.40      24.59      23.04
O      -5.54      26.58      23.03
O       4.40      21.79      19.07
O       5.54      22.46      17.20
O      17.71      18.38       0.33
O      18.85      16.40       0.33
O      12.85      23.47       7.53
O      11.71      22.80       9.39
O       8.22      17.99      23.04
O      10.50      17.98      23.03
O     -13.90      38.23      19.07
O     -13.89      36.91      17.20
O      22.35       1.94       0.33
O      20.06       1.94       0.33
O      13.90      30.08       7.52
O      13.89      31.40       9.39
