22

La       2.81      -1.16      10.09
La       4.03      -1.55       6.35
O       4.92      -0.93       8.89
O       6.17      -0.50       7.08
O       4.64      -1.00       4.02
O       2.46      -1.20       4.45
O       2.34       0.94       8.92
O       3.39       0.67       6.94
O       1.93      -1.78       7.56
O       0.67      -2.21       9.36
O       2.20      -1.71      12.43
O       4.39      -1.51      11.99
O       4.50      -3.65       7.52
O       3.45      -3.38       9.50
C       5.96      -0.39       8.33
C       3.09       0.07       2.52
C       3.41      -0.76       3.71
C       2.56       1.27       7.70
C       0.88      -2.32       8.11
C       3.75      -2.77      13.92
C       3.43      -1.95      12.73
C       4.29      -3.98       8.74
