49

N      -0.80      -0.91       9.87
O      -7.22       2.67      10.23
O      -7.69       0.61       9.38
O       0.84       6.30       9.44
O       2.84       7.04      10.29
O       3.57      -6.82      10.23
O       1.58      -7.55       9.38
O       6.14       1.64       9.44
O       6.62       3.71      10.29
H      -4.91       3.06      10.77
H      -2.48       2.58      10.83
H      -3.19      -1.27       9.06
H      -5.66      -0.79       9.03
H      -0.70       2.46       9.70
H       0.58       3.94       9.68
H       3.66      -4.48      10.77
H       2.87      -2.13      10.83
H      -0.86      -3.33       9.06
H      -0.06      -5.71       9.03
H       2.53      -0.38       9.70
H       3.83       1.08       9.68
H       4.63       5.27      10.07
C      -6.88       1.50       9.83
C      -5.43       1.18       9.87
C      -4.53       2.12      10.39
C      -3.16       1.85      10.40
C      -2.67       0.63       9.89
C      -3.58      -0.33       9.42
C      -4.95      -0.06       9.41
C      -1.21       0.38       9.84
C      -0.31       1.45       9.76
C       1.63       3.67       9.74
C       2.55       4.72       9.85
C       2.04       6.13       9.87
C       2.37      -6.63       9.83
C       1.86      -5.23       9.87
C       2.68      -4.22      10.39
C       2.24      -2.90      10.40
C       0.97      -2.56       9.89
C       0.13      -3.59       9.42
C       0.57      -4.91       9.41
C       0.53      -1.15       9.84
C       1.48      -0.12       9.76
C       3.43       2.09       9.74
C       4.36       3.13       9.85
C       5.82       2.81       9.87
C       1.07       1.22       9.73
C       2.05       2.34       9.72
C       3.92       4.46       9.95
