71

Ba      18.27      13.44       2.20
Ba      20.95      13.07       5.29
O      18.88      14.65       4.54
O      21.93      13.96       7.66
Ba      19.63      13.51       9.19
O      18.78      10.66       1.76
O      19.47      11.46       3.75
O      18.94      14.33       6.75
Ba      19.81      11.01      -0.74
O      22.07      14.85       9.72
O      20.61      12.78      11.57
Ba      21.66      15.28      12.42
O      21.03      12.94      13.76
O      23.19      15.10      14.73
O      19.89      15.82      14.21
O      23.59      15.35      16.93
O      20.00      16.81      16.22
C      19.25      10.48       2.95
C      20.75      12.23      12.73
O      17.78       9.60     -10.31
O      20.68      15.18      18.76
Ba      21.00      14.20      16.25
O      20.57       9.50      -9.07
O      20.71      11.66      17.19
O      22.44      12.59      18.28
O      20.26      10.70      -7.20
Ba      19.87       8.38     -11.54
C      22.55      14.66       8.54
O      18.43       9.18      -4.99
O      19.55       9.68      -3.11
O      17.91      12.27      -2.54
Ba      18.13       9.02      -7.72
H      16.93      15.92       3.74
O      21.35      13.89       2.81
O      20.81      12.92       0.86
O      15.92      12.92       3.56
O      14.06      14.10       3.49
O      15.73      14.59       2.14
O      20.41      11.36       7.34
O      18.06      13.06      -0.45
O      18.93      10.83       8.89
O      20.54      17.42      10.89
O      19.32      15.59      10.96
O      19.03       6.94      -9.34
O      19.40       6.60      -7.20
Ba      19.25      11.84      -4.91
O      17.22      13.43      -5.88
O      17.14      11.44      -6.81
C      19.51      16.74      15.06
O      22.34      10.89      -2.08
O      20.97      12.46      -2.79
O      22.33      11.47      -4.21
O      20.71       5.65      -8.70
O      15.46      12.85      -7.06
C      23.92      15.52      15.70
C      16.97       9.60     -11.32
C      21.01      10.31      -8.18
C      21.64      11.60      18.05
O      20.10       9.25       7.91
O      19.33      16.84       9.14
C      18.99       8.82      -3.89
C      17.52      13.08      -1.62
C      21.63      13.57       1.60
N      15.21      13.87       3.07
N      19.80      10.44       8.04
N      19.73      16.65      10.31
N      19.75       6.37      -8.40
N      16.57      12.60      -6.59
N      21.92      11.59      -3.04
C      16.56      16.20       4.72
C      18.41      14.89       5.72
