60

C       2.39      23.74      19.57
C       2.67      22.53      20.22
Br       6.83      22.13      19.76
C       3.97      21.98      20.13
C       5.01      22.71      19.53
C       4.72      23.92      18.85
C       3.41      24.44      18.89
Br       4.31      20.21      20.82
Br       0.59      24.43      19.56
Br       3.02      26.19      18.18
H       6.94      25.81      15.15
H       6.60      25.34      20.07
C       3.81      22.14      15.10
C       2.90      22.90      14.32
C       3.06      24.31      14.27
C       4.05      24.95      15.04
C       4.93      24.18      15.84
O      11.37      31.35      14.28
C       4.87      22.77      15.77
O       9.57      31.02      13.04
Br      10.66      26.22      18.68
Br      12.04      28.93      19.87
Br       5.43      27.96      20.38
C       7.94      28.99      16.45
C       8.39      27.66      16.38
C       9.54      27.36      15.61
C       8.65      30.02      15.81
C      10.27      30.74      14.06
C       9.77      29.72      15.01
C      10.26      28.40      14.97
O       1.25      21.19      13.99
Br       6.80      30.14      22.33
O       9.37      31.17      22.55
O       1.45      22.73      12.44
C       9.89      30.71      21.49
C       1.82      22.24      13.54
O       1.12      20.79      20.77
C       1.64      21.91      21.08
Br      10.09      25.53      15.33
Br      11.92      28.03      14.08
Br       6.23      29.41      17.24
Br       8.13      31.85      16.08
C      10.11      28.73      20.03
C       9.32      29.58      20.85
C       7.95      29.23      21.05
C       7.35      28.22      20.26
C       8.14      27.44      19.39
C       9.53      27.61      19.39
O       1.26      22.52      22.13
O      10.94      31.26      21.03
C       5.90      24.84      16.77
C       5.81      24.70      18.18
C       6.67      25.45      18.99
C       7.50      26.45      18.46
C       7.61      26.57      17.04
C       6.86      25.71      16.23
Br       6.35      21.73      16.40
Br       3.66      20.22      15.26
Br       4.20      26.88      14.98
Br       1.89      25.44      13.21
