60

C      23.79      17.84       4.79
C      22.79      18.78       5.17
Br      25.69      16.81       2.84
C      24.63      13.88       4.14
C      23.92      14.80       4.94
C      22.52      14.84       4.86
Br      22.38      19.12       7.03
Br      20.83      20.87       4.67
C      23.95      13.07       3.21
C      22.55      13.24       3.00
C      24.65      15.69       5.90
C      24.58      17.11       5.83
C      25.33      17.87       6.75
C      21.84      14.14       3.84
C      26.25      15.85       7.74
C      25.45      15.09       6.88
C      26.19      17.27       7.68
O      20.76      12.92       1.43
O      22.32      11.38       1.48
O      20.39      19.40       1.36
Br      23.35      17.62       0.62
H      25.49      14.01       6.93
H      25.27      18.95       6.71
O      21.96      20.95       1.29
C      21.84      12.48       1.92
C      21.49      19.87       1.77
O      30.49      19.57      11.96
O      30.46      21.32      10.64
Br      29.90      21.18       7.87
Br      25.50      17.18      10.78
Br      27.94      18.37      12.64
Br      28.02      19.30       6.01
C      30.00      20.19      10.96
Br      21.50      15.73       6.24
Br      19.93      14.42       3.69
Br      26.57      13.73       4.27
Br      25.00      11.75       2.25
C      29.94      12.91      11.12
O      30.44      13.41      12.17
O      30.30      11.77      10.69
C      27.60      13.40      10.36
C      28.97      13.70      10.33
C      29.46      14.67       9.43
C      28.58      15.28       8.52
C      28.82      19.83       8.74
C      28.91      19.57      10.14
C      27.19      15.11       8.64
C      26.70      14.15       9.57
C      27.97      18.69      10.73
C      26.99      18.06       9.94
C      27.05      18.15       8.53
C      27.94      19.08       7.94
Br      24.80      13.82       9.76
Br      31.32      15.13       9.43
Br      26.96      11.96      11.46
Br      29.33      16.15       6.97
C      22.06      19.47       4.17
C      22.25      19.16       2.81
C      23.21      18.21       2.45
C      24.05      17.65       3.42
