60

Br      24.39      14.11      34.61
Br      22.37      14.01      28.28
Br      20.33      12.91      30.68
O      20.67      13.00      33.87
C      23.85      19.30      32.37
C      22.43      19.21      32.34
C      21.82      18.47      31.30
C      22.60      17.89      30.29
O      22.43      11.67      33.92
C      24.63      18.60      31.43
C      24.01      17.86      30.40
H      25.72      13.86      28.64
H      25.62      18.82      28.48
O      20.55      19.46      33.81
O      22.02      21.09      33.72
C      24.54      14.76      31.81
C      26.51      15.62      27.68
C      21.83      12.70      33.46
C      21.62      19.96      33.34
Br      25.34      17.29      24.72
Br      29.42      15.26      28.84
Br      31.51      13.91      26.65
Br      24.97      13.92      25.47
Br      27.03      12.18      23.53
O      30.42      13.33      23.08
O      30.55      11.59      24.44
C      30.07      12.73      24.15
C      30.01      19.94      23.99
O      30.32      19.38      22.90
O      30.55      21.05      24.32
C      22.06      13.62      31.13
C      24.83      17.06      29.44
Br      26.54      18.70      31.56
Br      24.78      20.35      33.72
C      29.06      19.28      24.93
C      29.34      19.25      26.32
C      28.49      18.54      27.20
C      29.14      13.39      25.09
C      27.37      17.83      26.71
Br      21.77      17.33      28.64
C      27.75      13.34      24.89
C      27.89      18.64      24.46
Br      19.90      18.27      31.20
C      27.04      17.95      25.35
C      29.64      14.02      26.24
Br      27.39      18.78      22.60
C      27.40      14.81      26.81
C      26.88      14.06      25.73
Br      28.87      18.60      29.08
Br      30.91      20.12      27.05
C      28.77      14.69      27.12
C      22.53      13.53      32.46
C      24.84      15.65      29.47
C      22.85      14.23      30.14
C      24.06      14.87      30.49
C      26.50      17.04      27.64
Br      26.33      15.33      32.23
C      25.68      14.95      28.59
C      23.77      14.12      32.79
C      25.64      17.74      28.51
