60

Br      16.26      26.27      24.18
Br      17.23      28.83      22.35
Br      18.66      28.69      28.87
Br      20.68      30.30      26.90
O      12.50      21.59      33.64
O      10.87      23.04      33.59
Br      12.91      25.76      25.24
Br      11.24      28.02      23.49
Br      15.52      30.13      28.05
Br      14.63      32.19      25.59
C      12.67      28.58      24.66
C      13.02      29.95      24.72
C      14.02      30.36      25.61
C      14.59      29.45      26.51
C      14.33      28.06      26.37
C      13.35      27.64      25.44
C      15.05      27.08      27.24
C      14.29      26.27      28.10
C      16.47      26.97      27.28
C      17.06      26.09      28.20
C      14.88      25.45      29.07
C      16.30      25.37      29.13
Br      14.98      22.30      28.74
Br      14.25      20.86      31.59
H      13.21      26.33      28.05
H      18.14      26.01      28.23
Br      12.81      27.30      30.66
Br      10.90      25.67      32.68
C      11.98      22.63      33.13
O      18.71      31.22      22.99
O      20.51      31.13      24.23
C      17.38      24.05      32.55
C      18.34      23.09      32.20
C      18.68      22.90      30.84
C      17.98      23.60      29.84
C      19.07      22.37      33.25
C      17.79      28.73      24.20
C      18.77      29.59      24.75
C      19.14      29.42      26.11
C      18.37      28.60      26.95
C      17.36      27.78      26.40
O      12.73      31.40      22.85
C      17.19      27.75      25.00
C      17.03      24.60      30.19
C      14.00      24.71      30.01
O      11.14      31.35      24.39
C      19.36      30.69      23.94
C      16.82      24.88      31.56
C      14.15      23.32      30.15
C      12.29      24.67      31.76
C      13.60      22.66      31.26
C      12.26      30.95      23.95
O      18.63      21.27      33.70
C      13.05      25.38      30.81
Br      15.96      26.51      32.10
Br      16.83      24.24      34.38
Br      18.35      23.17      27.98
Br      20.12      21.72      30.37
O      20.15      22.87      33.71
C      12.62      23.31      32.07
