11

N       2.13       8.35       7.37
Ni       2.28       6.83       6.08
C      -0.03       6.15       4.49
O       2.78       5.33       4.93
N       0.58       7.19       5.03
C       2.70       5.26       7.98
C       3.13       5.52       3.70
C       3.17       8.89       8.01
C       0.98       8.85       7.96
C      -0.22       8.30       4.77
O       1.54       5.49       7.45
