21

C       9.60       4.22       4.46
Mg      11.69       2.38       5.49
Mg      12.01       3.54       8.76
Mg      11.71       5.67       6.16
C      10.10       5.87       8.73
O      13.37       6.85       6.62
O      13.00       5.01       7.79
O      10.73       2.65       7.28
O      10.71       2.01       9.41
O      12.86       2.50       3.73
O      12.79       4.19       5.17
C      13.71       6.07       7.57
C      10.24       1.90       8.24
C      13.27       3.65       4.08
C      13.85       1.50       7.51
O      13.16       1.36       6.44
O      13.57       2.28       8.48
O      10.19       5.24       4.97
O      10.00       3.01       4.54
O      10.44       6.32       7.59
O      10.66       4.90       9.36
