14

Ca       1.68       4.05       5.41
Ca       5.61       3.59       4.61
O       3.73       5.25       5.50
O       5.79       5.96       5.19
C       0.73       4.50       2.73
C       2.72       1.48       4.68
C      -1.22       3.15       7.29
C       4.57       6.17       5.34
O      -0.11       4.06       3.55
O       1.91       4.77       3.07
O       3.57       2.39       4.52
O       1.50       1.68       4.83
O      -0.38       3.59       6.47
O       5.39       2.87       6.95
