40

O       0.68      -0.03      11.13
O      -0.68      -0.58       9.41
O      -1.42       7.81       6.48
O      -2.40       9.68       7.19
H       0.29       2.19      12.03
H      -0.46       4.56      11.96
O      -4.67       1.72      15.22
O      -2.52      10.75       9.79
O      -4.67      10.02       9.92
H      -3.76       8.04      11.73
H      -1.24       6.08       7.99
H      -3.53       3.74      11.01
H      -2.17       3.89       8.07
H      -1.44       1.50       8.17
H      -4.12       2.29      12.90
H      -2.71       6.96      13.75
H      -3.50       5.53      15.63
O      -4.77       3.52      16.59
C      -0.15       0.28      10.22
C      -0.54       1.70      10.11
C      -0.24       2.58      11.17
C      -0.66       3.90      11.12
C      -1.38       4.38      10.01
C      -1.61       3.52       8.92
C      -1.22       2.19       8.98
C      -1.94       5.74       9.99
C      -2.69       6.30      11.06
C      -3.16       7.62      10.94
C      -2.93       8.40       9.79
C      -2.22       7.82       8.72
C      -1.75       6.51       8.84
C      -1.99       8.47       7.40
C      -3.43       9.82       9.81
C      -3.49       4.14      12.02
C      -3.08       5.47      12.23
C      -3.07       5.95      13.55
C      -3.49       5.15      14.61
C      -3.90       3.82      14.39
C      -3.86       3.32      13.08
C      -4.47       2.96      15.46
