512

Zn      10.28      14.59      24.18
Zn      10.22      14.56      27.43
Zn      14.27       9.97      24.18
Zn      14.33       9.99      27.43
Zn       9.97      10.28      24.18
Zn       9.99      10.22      27.43
Zn      14.59      14.27      24.18
Zn      14.56      14.33      27.43
Zn       6.09       6.40      21.58
Zn       6.15       6.38      18.33
Zn       2.10       1.78      21.58
Zn       2.04       1.81      18.33
Zn       6.40       2.10      21.58
Zn       6.38       2.04      18.33
Zn       1.78       6.09      21.58
Zn       1.81       6.15      18.33
Zn       6.09       1.78       6.33
Zn       6.15       1.81       3.08
Zn       2.10       6.40       6.33
Zn       2.04       6.38       3.08
Zn       6.40       6.09       6.33
Zn       6.38       6.15       3.08
Zn       1.78       2.10       6.33
Zn       1.81       2.04       3.08
Zn      10.28       9.97       8.92
Zn      10.22       9.99      12.18
Zn      14.27      14.59       8.92
Zn      14.33      14.56      12.18
Zn       9.97      14.27       8.92
Zn       9.99      14.33      12.18
Zn      14.59      10.28       8.92
Zn      14.56      10.22      12.18
H       6.40      16.02      27.89
H       2.90       0.89      25.69
H       6.61       0.14      23.64
H       5.34       0.97      29.48
H       1.70      16.31       1.01
H       0.68      15.62      29.34
H       1.97      15.80      27.26
H      12.04      13.85      25.83
H       1.79       8.54      27.89
H       5.29       7.30      25.69
H       1.57       8.04      23.64
H       2.85       7.22      29.48
H       6.49       8.25       1.01
H       7.51       8.94      29.34
H       6.22       8.75      27.26
H      12.52      10.70      25.83
H       8.54       6.40      27.89
H       7.30       2.90      25.69
H       8.04       6.61      23.64
H       7.22       5.34      29.48
H       8.25       1.70       1.01
H       8.94       0.68      29.34
H       8.75       1.97      27.26
H      10.70      12.04      25.83
H      16.02       1.79      27.89
H       0.89       5.29      25.69
H       0.14       1.57      23.64
H       0.97       2.85      29.48
H      16.31       6.49       1.01
H      15.62       7.51      29.34
H      15.80       6.22      27.26
H      13.85      12.52      25.83
H       9.97       7.83      17.87
H      13.47       9.07      20.07
H       9.76       8.33      22.12
H      11.03       9.15      16.28
H      14.67       8.12      14.24
H      15.69       7.43      16.42
H      14.40       7.62      18.50
H       4.33       5.67      19.93
H      14.58       0.35      17.87
H      11.08      15.48      20.07
H      14.80      16.23      22.12
H      13.52      15.40      16.28
H       9.88       0.06      14.24
H       8.86       0.75      16.42
H      10.15       0.57      18.50
H       3.85       2.52      19.93
H       7.83      14.58      17.87
H       9.07      11.08      20.07
H       8.33      14.80      22.12
H       9.15      13.52      16.28
H       8.12       9.88      14.24
H       7.43       8.86      16.42
H       7.62      10.15      18.50
H       5.67       3.85      19.93
H       0.35       9.97      17.87
H      15.48      13.47      20.07
H      16.23       9.76      22.12
H      15.40      11.03      16.28
H       0.06      14.67      14.24
H       0.75      15.69      16.42
H       0.57      14.40      18.50
H       2.52       4.33      19.93
H       9.97       0.35       2.61
H      13.47      15.48       4.82
H       9.76      16.23       6.87
H      11.03      15.40       1.03
H      14.67       0.06      29.50
H      15.69       0.75       1.16
H      14.40       0.57       3.25
H       4.33       2.52       4.67
H      14.58       7.83       2.61
H      11.08       9.07       4.82
H      14.80       8.33       6.87
H      13.52       9.15       1.03
H       9.88       8.12      29.50
H       8.86       7.43       1.16
H      10.15       7.62       3.25
H       3.85       5.67       4.67
H       7.83       9.97       2.61
H       9.07      13.47       4.82
H       8.33       9.76       6.87
H       9.15      11.03       1.03
H       8.12      14.67      29.50
H       7.43      15.69       1.16
H       7.62      14.40       3.25
H       5.67       4.33       4.67
H       0.35      14.58       2.61
H      15.48      11.08       4.82
H      16.23      14.80       6.87
H      15.40      13.52       1.03
H       0.06       9.88      29.50
H       0.75       8.86       1.16
H       0.57      10.15       3.25
H       2.52       3.85       4.67
H       6.40       8.54      12.64
H       2.90       7.30      10.43
H       6.61       8.04       8.38
H       5.34       7.22      14.23
H       1.70       8.25      16.27
H       0.68       8.94      14.09
H       1.97       8.75      12.00
H      12.04      10.70      10.58
H       1.79      16.02      12.64
H       5.29       0.89      10.43
H       1.57       0.14       8.38
H       2.85       0.97      14.23
H       6.49      16.31      16.27
H       7.51      15.62      14.09
H       6.22      15.80      12.00
H      12.52      13.85      10.58
H       8.54       1.79      12.64
H       7.30       5.29      10.43
H       8.04       1.57       8.38
H       7.22       2.85      14.23
H       8.25       6.49      16.27
H       8.94       7.51      14.09
H       8.75       6.22      12.00
H      10.70      12.52      10.58
H      16.02       6.40      12.64
H       0.89       2.90      10.43
H       0.14       6.61       8.38
H       0.97       5.34      14.23
H      16.31       1.70      16.27
H      15.62       0.68      14.09
H      15.80       1.97      12.00
H      13.85      12.04      10.58
C       6.64      16.24      25.77
C       5.90      16.29      26.96
C       4.54       0.27      26.96
C       3.95       0.60      25.73
C       4.69       0.58      24.54
C       6.04       0.20      24.56
C       4.01       0.95      23.27
C       3.75       0.22      28.21
C       4.32       0.58      29.43
C       3.58       0.50       0.12
C       2.26       0.03       0.08
C       1.69      16.02      29.38
C       2.42      16.12      28.19
C       4.21       0.91       1.40
C       8.06      15.77      25.80
C       1.54       8.31      25.77
C       2.28       8.26      26.96
C       3.64       7.92      26.96
C       4.24       7.59      25.73
C       3.50       7.61      24.54
C       2.15       7.98      24.56
C       4.17       7.23      23.27
C       4.44       7.97      28.21
C       3.86       7.60      29.43
C       4.61       7.69       0.12
C       5.93       8.16       0.08
C       6.50       8.53      29.38
C       5.76       8.43      28.19
C       3.98       7.28       1.40
C       0.12       8.78      25.80
C       8.31       6.64      25.77
C       8.26       5.90      26.96
C       7.92       4.54      26.96
C       7.59       3.95      25.73
C       7.61       4.69      24.54
C       7.98       6.04      24.56
C       7.23       4.01      23.27
C       7.97       3.75      28.21
C       7.60       4.32      29.43
C       7.69       3.58       0.12
C       8.16       2.26       0.08
C       8.53       1.69      29.38
C       8.43       2.42      28.19
C       7.28       4.21       1.40
C       8.78       8.06      25.80
C      16.24       1.54      25.77
C      16.29       2.28      26.96
C       0.27       3.64      26.96
C       0.60       4.24      25.73
C       0.58       3.50      24.54
C       0.20       2.15      24.56
C       0.95       4.17      23.27
C       0.22       4.44      28.21
C       0.58       3.86      29.43
C       0.50       4.61       0.12
C       0.03       5.93       0.08
C      16.02       6.50      29.38
C      16.12       5.76      28.19
C       0.91       3.98       1.40
C      15.77       0.12      25.80
C       9.73       8.06      19.99
C      10.47       8.11      18.80
C      11.83       8.45      18.80
C      12.42       8.78      20.03
C      11.68       8.76      21.22
C      10.33       8.39      21.21
C      12.36       9.14      22.49
C      12.62       8.40      17.55
C      12.05       8.77      16.33
C      12.79       8.68      15.14
C      14.11       8.21      15.17
C      14.68       7.84      16.39
C      13.95       7.94      17.57
C      12.16       9.09      13.86
C       8.31       7.59      19.96
C      14.83       0.13      19.99
C      14.09       0.08      18.80
C      12.73      16.10      18.80
C      12.13      15.77      20.03
C      12.87      15.79      21.22
C      14.22      16.17      21.21
C      12.20      15.42      22.49
C      11.93      16.15      17.55
C      12.51      15.79      16.33
C      11.76      15.87      15.14
C      10.44      16.34      15.17
C       9.87       0.35      16.39
C      10.61       0.25      17.57
C      12.39      15.46      13.86
C      16.25       0.60      19.96
C       8.06      14.83      19.99
C       8.11      14.09      18.80
C       8.45      12.73      18.80
C       8.78      12.13      20.03
C       8.76      12.87      21.22
C       8.39      14.22      21.21
C       9.14      12.20      22.49
C       8.40      11.93      17.55
C       8.77      12.51      16.33
C       8.68      11.76      15.14
C       8.21      10.44      15.17
C       7.84       9.87      16.39
C       7.94      10.61      17.57
C       9.09      12.39      13.86
C       7.59      16.25      19.96
C       0.13       9.73      19.99
C       0.08      10.47      18.80
C      16.10      11.83      18.80
C      15.77      12.42      20.03
C      15.79      11.68      21.22
C      16.17      10.33      21.21
C      15.42      12.36      22.49
C      16.15      12.62      17.55
C      15.79      12.05      16.33
C      15.87      12.79      15.14
C      16.34      14.11      15.17
C       0.35      14.68      16.39
C       0.25      13.95      17.57
C      15.46      12.16      13.86
C       0.60       8.31      19.96
C       9.73       0.13       4.73
C      10.47       0.08       3.54
C      11.83      16.10       3.55
C      12.42      15.77       4.77
C      11.68      15.79       5.97
C      10.33      16.17       5.95
C      12.36      15.42       7.24
C      12.62      16.15       2.30
C      12.05      15.79       1.07
C      12.79      15.87      30.39
C      14.11      16.34      30.42
C      14.68       0.35       1.13
C      13.95       0.25       2.31
C      12.16      15.46      29.11
C       8.31       0.60       4.71
C      14.83       8.06       4.73
C      14.09       8.11       3.54
C      12.73       8.45       3.55
C      12.13       8.78       4.77
C      12.87       8.76       5.97
C      14.22       8.39       5.95
C      12.20       9.14       7.24
C      11.93       8.40       2.30
C      12.51       8.77       1.07
C      11.76       8.68      30.39
C      10.44       8.21      30.42
C       9.87       7.84       1.13
C      10.61       7.94       2.31
C      12.39       9.09      29.11
C      16.25       7.59       4.71
C       8.06       9.73       4.73
C       8.11      10.47       3.54
C       8.45      11.83       3.55
C       8.78      12.42       4.77
C       8.76      11.68       5.97
C       8.39      10.33       5.95
C       9.14      12.36       7.24
C       8.40      12.62       2.30
C       8.77      12.05       1.07
C       8.68      12.79      30.39
C       8.21      14.11      30.42
C       7.84      14.68       1.13
C       7.94      13.95       2.31
C       9.09      12.16      29.11
C       7.59       8.31       4.71
C       0.13      14.83       4.73
C       0.08      14.09       3.54
C      16.10      12.73       3.55
C      15.77      12.13       4.77
C      15.79      12.87       5.97
C      16.17      14.22       5.95
C      15.42      12.20       7.24
C      16.15      11.93       2.30
C      15.79      12.51       1.07
C      15.87      11.76      30.39
C      16.34      10.44      30.42
C       0.35       9.87       1.13
C       0.25      10.61       2.31
C      15.46      12.39      29.11
C       0.60      16.25       4.71
C       6.64       8.31      10.52
C       5.90       8.26      11.71
C       4.54       7.92      11.70
C       3.95       7.59      10.48
C       4.69       7.61       9.29
C       6.04       7.98       9.30
C       4.01       7.23       8.02
C       3.75       7.97      12.95
C       4.32       7.60      14.18
C       3.58       7.69      15.37
C       2.26       8.16      15.34
C       1.69       8.53      14.12
C       2.42       8.43      12.94
C       4.21       7.28      16.65
C       8.06       8.78      10.55
C       1.54      16.24      10.52
C       2.28      16.29      11.71
C       3.64       0.27      11.70
C       4.24       0.60      10.48
C       3.50       0.58       9.29
C       2.15       0.20       9.30
C       4.17       0.95       8.02
C       4.44       0.22      12.95
C       3.86       0.58      14.18
C       4.61       0.50      15.37
C       5.93       0.03      15.34
C       6.50      16.02      14.12
C       5.76      16.12      12.94
C       3.98       0.91      16.65
C       0.12      15.77      10.55
C       8.31       1.54      10.52
C       8.26       2.28      11.71
C       7.92       3.64      11.70
C       7.59       4.24      10.48
C       7.61       3.50       9.29
C       7.98       2.15       9.30
C       7.23       4.17       8.02
C       7.97       4.44      12.95
C       7.60       3.86      14.18
C       7.69       4.61      15.37
C       8.16       5.93      15.34
C       8.53       6.50      14.12
C       8.43       5.76      12.94
C       7.28       3.98      16.65
C       8.78       0.12      10.55
C      16.24       6.64      10.52
C      16.29       5.90      11.71
C       0.27       4.54      11.70
C       0.60       3.95      10.48
C       0.58       4.69       9.29
C       0.20       6.04       9.30
C       0.95       4.01       8.02
C       0.22       3.75      12.95
C       0.58       4.32      14.18
C       0.50       3.58      15.37
C       0.03       2.26      15.34
C      16.02       1.69      14.12
C      16.12       2.42      12.94
C       0.91       4.21      16.65
C      15.77       8.06      10.55
O       4.67       1.30      22.23
O       2.73       0.92      23.25
O       5.49       0.98       1.42
O       3.52       1.17       2.44
O      11.04      13.84      25.82
O       8.64      15.59      24.68
O       8.58      15.59      26.96
O       3.52       6.89      22.23
O       5.45       7.26      23.25
O       2.69       7.20       1.42
O       4.66       7.02       2.44
O      13.51      10.72      25.82
O      15.92       8.96      24.68
O      15.97       8.97      26.96
O       6.89       4.67      22.23
O       7.26       2.73      23.25
O       7.20       5.49       1.42
O       7.02       3.52       2.44
O      10.72      11.04      25.82
O       8.96       8.64      24.68
O       8.97       8.58      26.96
O       1.30       3.52      22.23
O       0.92       5.45      23.25
O       0.98       2.69       1.42
O       1.17       4.66       2.44
O      13.84      13.51      25.82
O      15.59      15.92      24.68
O      15.59      15.97      26.96
O      11.70       9.48      23.53
O      13.64       9.11      22.51
O      10.88       9.17      13.83
O      12.85       9.35      12.82
O       5.33       5.65      19.94
O       7.73       7.41      21.08
O       7.79       7.40      18.81
O      12.85      15.07      23.53
O      10.92      15.45      22.51
O      13.68      15.39      13.83
O      11.71      15.20      12.82
O       2.86       2.53      19.94
O       0.45       0.78      21.08
O       0.40       0.78      18.81
O       9.48      12.85      23.53
O       9.11      10.92      22.51
O       9.17      13.68      13.83
O       9.35      11.71      12.82
O       5.65       2.86      19.94
O       7.41       0.45      21.08
O       7.40       0.40      18.81
O      15.07      11.70      23.53
O      15.45      13.64      22.51
O      15.39      10.88      13.83
O      15.20      12.85      12.82
O       2.53       5.33      19.94
O       0.78       7.73      21.08
O       0.78       7.79      18.81
O      11.70      15.07       8.28
O      13.64      15.45       7.26
O      10.88      15.39      29.09
O      12.85      15.20      28.07
O       5.33       2.53       4.68
O       7.73       0.78       5.83
O       7.79       0.78       3.55
O      12.85       9.48       8.28
O      10.92       9.11       7.26
O      13.68       9.17      29.09
O      11.71       9.35      28.07
O       2.86       5.65       4.68
O       0.45       7.41       5.83
O       0.40       7.40       3.55
O       9.48      11.70       8.28
O       9.11      13.64       7.26
O       9.17      10.88      29.09
O       9.35      12.85      28.07
O       5.65       5.33       4.68
O       7.41       7.73       5.83
O       7.40       7.79       3.55
O      15.07      12.85       8.28
O      15.45      10.92       7.26
O      15.39      13.68      29.09
O      15.20      11.71      28.07
O       2.53       2.86       4.68
O       0.78       0.45       5.83
O       0.78       0.40       3.55
O       4.67       6.89       6.98
O       2.73       7.26       7.99
O       5.49       7.20      16.68
O       3.52       7.02      17.69
O      11.04      10.72      10.57
O       8.64       8.96       9.42
O       8.58       8.97      11.70
O       3.52       1.30       6.98
O       5.45       0.92       7.99
O       2.69       0.98      16.68
O       4.66       1.17      17.69
O      13.51      13.84      10.57
O      15.92      15.59       9.42
O      15.97      15.59      11.70
O       6.89       3.52       6.98
O       7.26       5.45       7.99
O       7.20       2.69      16.68
O       7.02       4.66      17.69
O      10.72      13.51      10.57
O       8.96      15.92       9.42
O       8.97      15.97      11.70
O       1.30       4.67       6.98
O       0.92       2.73       7.99
O       0.98       5.49      16.68
O       1.17       3.52      17.69
O      13.84      11.04      10.57
O      15.59       8.64       9.42
O      15.59       8.58      11.70
