15

O       4.17       0.68       4.28
O       4.44       2.17       5.94
O       7.08       2.37       4.39
O       8.97       2.10       5.60
H       4.37      -1.24       6.56
C       8.06      -0.28       6.66
C       6.34      -1.71       7.25
N       7.65      -1.38       7.31
C       4.77       1.11       5.30
C       5.83       0.24       5.92
C       7.20       0.56       5.94
C       7.77       1.76       5.25
H       9.12      -0.04       6.72
H       6.04      -2.63       7.76
C       5.41      -0.93       6.57
