30

Ag       8.01       2.03       7.85
N       6.62       0.08       7.54
Ag       3.91       1.79       8.75
N      10.14      -4.38       6.77
N       6.83       3.39       6.44
Ag       9.27      -1.38       7.11
Ag       8.38      -5.12       7.70
Ag       2.74      -1.49       7.12
C      11.22      -5.17       6.54
C       5.77      -5.73       9.22
C      11.27       2.32       8.35
C       6.03      -1.88       6.82
C       6.97      -7.60       8.46
C       5.75       2.88       5.79
C       6.86       4.72       6.67
C       5.42       2.58      11.50
N       6.93      -6.28       8.71
N      12.40       1.58       8.13
N      10.67       0.36       7.63
N       5.31       0.01       7.62
N      10.19       1.56       8.03
N       5.45       2.39      10.15
N       7.49       2.50      10.92
N      11.99       0.37       7.69
N       6.77       2.34       9.83
N      10.62      -3.14       6.93
N       1.37      -3.18       6.78
N       1.77      -4.43       6.54
N       4.91      -1.21       7.18
N       7.11      -1.08       7.06
