33

H       3.41      -1.78      12.59
H       4.43      -3.74      13.75
H       5.16      -5.66      15.39
H       5.67      -7.12      17.36
H       2.92      -4.88      19.80
H       2.29      -2.38      19.73
H       1.75      -1.12      18.60
H       3.46      -1.62      18.63
H       0.44      -4.31      17.06
H      -0.03      -2.73      17.73
H       0.53      -4.01      18.82
H       1.06      -0.86      16.07
O       1.96       0.20      12.34
O       0.63       0.62      14.10
O       5.17      -8.06      19.76
O       4.20      -6.51      21.02
C       1.56      -0.07      13.53
C       2.17      -1.22      14.26
C       3.13      -2.03      13.61
C       3.69      -3.12      14.25
C       3.31      -3.40      15.57
C       3.76      -4.43      16.50
C       4.67      -5.49      16.34
C       4.95      -6.30      17.44
C       4.32      -6.07      18.68
C       4.60      -6.93      19.87
C       3.38      -5.03      18.83
C       3.10      -4.23      17.74
C       2.13      -3.06      17.66
C       2.43      -1.98      18.72
C       0.68      -3.56      17.83
C       2.37      -2.57      16.24
C       1.79      -1.50      15.58
