13

H       2.55       6.60       5.77
H      -0.83       3.98       6.14
H      -1.44       5.19       8.27
H       1.74       7.81       7.80
N       0.11       6.56       8.09
O       0.68       3.35       4.32
O       2.51       4.67       4.12
C       0.98       5.10       5.87
C       1.44       4.34       4.68
C       1.71       6.21       6.33
C      -0.19       4.77       6.53
C      -0.62       5.51       7.64
C       1.21       6.93       7.43
