13

C       1.39      10.01       0.72
C       1.87       9.17      -0.29
C      -0.49      10.55      -0.67
C       0.21      10.71       0.55
C      -0.22      11.65       1.63
C       0.08       9.73      -1.65
H       1.97      10.17       1.62
H       2.68       8.46      -0.11
N       1.20       9.03      -1.46
H      -1.32      11.19      -0.92
H      -0.40       9.63      -2.63
O       0.52      11.75       2.64
O      -1.31      12.30       1.42
