13

O       4.46      -3.61      23.38
C       4.26      -3.65      24.59
O       0.93       0.95      24.32
H       2.13      -0.93      27.59
O       0.99       1.22      26.53
S       2.65      -1.44      24.26
C       3.41      -2.62      25.20
C       3.17      -2.40      26.52
C       2.37      -1.23      26.75
C       2.02      -0.63      25.61
H       3.47      -2.95      27.20
C       1.25       0.62      25.49
O       4.77      -4.53      25.35
