13

S       3.52      10.38      11.90
H       3.27       9.38      15.18
C       3.23       9.82      14.37
C       2.55      11.04      14.18
C       3.83       9.35      13.24
C       4.64       8.12      13.04
C       2.60      11.45      12.88
C       1.95      12.62      12.23
H       2.11      11.50      14.85
O       4.99       7.87      11.87
O       4.87       7.44      14.07
O       2.01      12.70      10.99
O       1.37      13.48      12.94
