13

C       3.41       3.00      12.61
C       3.17       2.78      11.29
C       2.37       1.61      11.06
C       2.02       1.01      12.20
C       4.26       4.03      13.22
C       1.25      -0.24      12.32
O       4.77       4.91      12.46
O       4.46       3.99      14.43
S       2.65       1.82      13.55
O       0.93      -0.57      13.49
O       0.99      -0.84      11.27
H       3.47       3.33      10.61
H       2.13       1.31      10.22
