13

O       7.41      10.70      25.07
O       7.72       9.78      27.03
O      11.25       5.21      26.09
O      11.19       4.94      23.88
S       9.53       7.60      26.16
H       8.70       9.12      23.21
H      10.05       7.09      22.82
C       8.77       8.78      25.22
C       9.01       8.56      23.89
C       9.81       7.40      23.67
C      10.16       6.79      24.81
C       7.92       9.82      25.83
C      10.93       5.55      24.92
