13

C       8.77       8.58      12.59
C       9.01       8.80      13.92
C       9.81       9.96      14.14
C      10.16      10.57      13.00
C       7.92       7.55      11.98
C      10.93      11.82      12.89
H       8.70       8.25      14.60
S       9.53       9.76      11.65
H      10.05      10.27      14.99
O       7.41       6.66      12.74
O       7.72       7.59      10.78
O      11.25      12.15      11.72
O      11.19      12.42      13.93
