13

C       4.79       4.25      18.52
C       5.37       3.37      19.34
C       4.60       3.05      20.47
C       3.41       3.71      20.48
C       5.32       4.78      17.25
S       3.26       4.73      19.12
O       4.74       5.72      16.69
O       6.36       4.27      16.77
C       2.31       3.54      21.44
O       2.45       2.68      22.37
O       1.26       4.21      21.34
H       6.22       3.00      19.18
H       4.87       2.45      21.14
