9

O       5.69       3.50       9.19
C       5.00       4.51       8.89
O       4.35       7.42      10.94
C       4.28       5.24      10.02
C       4.13       6.73       9.89
H       3.26       4.81      10.04
H       4.76       5.01      10.98
O       3.75       7.28       8.80
O       4.83       4.86       7.68
