9

H       4.35       7.93       4.05
C       3.33       7.51       4.07
O       3.26       5.33       3.15
H       2.85       7.74       3.11
O       3.86       5.46       5.29
C       2.61       8.23       5.20
O       1.92       9.25       4.90
C       3.48       6.01       4.20
O       2.78       7.88       6.41
