88

Mn       0.80       4.63       7.00
Mn       2.23       6.57      19.15
Mn       6.00       2.84      17.29
Mn       4.56       0.90       5.14
H       0.99       2.47       3.06
H       0.97       4.17       3.62
H       6.57       4.35       9.87
H       6.30       2.64      11.65
H       1.05       7.41       9.17
H       1.62       1.76       7.52
H       0.43       6.60      11.16
H       2.40       1.26      15.20
H       2.06       7.03      15.77
H       3.62       6.85      22.02
H       4.26       1.09      23.80
H       1.97       3.79      21.32
H       1.78       1.97      19.66
H       2.59       4.59      23.31
H       5.80       4.99      21.24
H       5.83       3.30      20.67
H       0.22       3.11      14.42
H       0.49       4.82      12.64
H       5.74       0.06      15.12
H       5.17       5.70      16.78
H       6.36       0.86      13.13
H       4.39       6.20       9.09
H       4.73       0.44       8.52
H       3.17       0.62       2.27
H       2.53       6.38       0.49
H       4.82       3.68       2.98
H       5.01       5.49       4.63
H       4.20       2.87       0.99
C       2.19       2.89       4.81
C       0.96       3.12       3.93
C       6.84       2.89       4.72
C      -0.14       3.36       9.78
C       6.87       2.40      10.76
C       0.29       1.12      10.59
C       0.98       0.91       9.38
C       1.09       1.93       8.45
C       0.28       0.02      11.53
C       1.21       0.84      16.95
C       2.44       0.62      16.08
C       3.72       0.84      16.86
C       3.54       0.37      21.92
C       3.69       1.33      22.91
C       3.10       2.61      22.74
C       2.42       2.82      21.53
C       2.31       1.81      20.59
C       3.12       3.72      23.68
C       4.60       4.57      19.48
C       5.83       4.35      20.36
C      -0.05       4.57      19.58
C       6.93       4.10      14.52
C      -0.08       5.07      13.53
C       6.50       6.34      13.70
C       5.81       6.55      14.91
C       5.70       5.54      15.85
C       6.51       7.45      12.76
C       5.58       6.62       7.34
C       4.35       6.85       8.22
C       3.07       6.62       7.43
C       3.26       7.10       2.37
C       3.10       6.13       1.39
C       3.69       4.86       1.55
C       4.38       4.64       2.77
C       4.48       5.66       3.70
C       3.67       3.75       0.62
N       0.55       3.15       8.63
N       2.84       0.58      20.77
N       6.24       4.31      15.67
N       3.95       6.88       3.52
O       2.29       3.53       5.90
O       3.01       2.02       4.38
O       6.06       1.98       4.29
O       6.62       3.61       5.74
O       1.11       0.21      18.05
O       0.38       1.71      16.53
O       4.50       1.76      16.44
O       3.93       0.13      17.89
O       4.50       3.94      18.39
O       3.78       5.45      19.91
O       0.73       5.49      20.00
O       0.17       3.86      18.55
O       5.68       7.26       6.24
O       6.41       5.75       7.76
O       2.30       5.71       7.85
O       2.86       7.34       6.40
