498

C      17.74      14.57       0.87
C      17.62      13.16       0.96
C      16.12      13.16      33.04
C      15.96      14.56      33.15
C      15.12      15.23      32.22
C      14.58      14.58      31.08
C      14.87      13.21      30.93
C      15.56      12.49      31.93
C      18.17      12.49       2.07
C      18.79      13.21       3.11
C      19.03      14.60       3.00
C      18.54      15.24       1.84
C      17.73      16.18      33.15
C       7.89       0.65      33.01
C       6.35       0.66       0.90
C      15.95      16.17       0.87
C       5.79       1.34       2.00
C       5.16       0.63       3.04
C      14.66      16.15       3.00
C      15.16      15.50       1.84
C      18.57      15.52      32.22
C      19.11      16.16      31.08
C       9.22       0.60      30.95
C       8.50       1.31      31.92
C      16.85      15.37      34.08
C       7.10       1.43      34.00
C      16.89      12.39      34.05
C       0.04      15.40       4.06
C      13.91      15.37      30.08
C      14.11      15.35       4.06
C       0.24      15.38      30.08
C      12.21       8.08      23.63
C      13.49       8.68      23.71
C      14.24       7.39      21.66
C      13.11       6.55      21.78
C      12.95       5.49      20.84
C      13.78       5.34      19.70
C      14.83       6.28      19.55
C      15.10       7.24      20.55
C      13.79       9.50      24.83
C      12.86       9.67      25.87
C      11.54       9.19      25.76
C      11.23       8.43      24.60
C      10.82       7.26      21.79
C       9.69       6.42      21.68
C      10.47       5.10      23.71
C      11.74       5.72      23.63
C      10.19       4.26      24.81
C      11.13       4.08      25.85
C      12.43       4.61      25.75
C      12.72       5.38      24.59
C      10.97       8.32      20.86
C      10.13       8.47      19.72
C       9.09       7.53      19.58
C       8.82       6.57      20.58
C      11.97       6.90      22.71
C       9.42       5.35      22.69
C      14.53       8.44      22.67
C      10.57       9.27      26.82
C      13.44       4.37      18.71
C      13.39       4.58      26.83
C      10.48       9.45      18.72
C       1.05       6.53      12.24
C      19.43       7.35      12.33
C       0.64       8.64      10.29
C       1.93       8.08      10.40
C       2.93       8.48       9.46
C       2.64       9.27       8.32
C       1.30       9.71       8.18
C       0.34       9.46       9.17
C      18.58       7.21      13.45
C      18.89       6.31      14.49
C       0.43       5.40      14.38
C       1.23       5.51      13.21
C       2.45       5.74      10.40
C       3.74       5.18      10.29
C       4.49       6.48      12.33
C       3.33       7.29      12.25
C       5.34       6.62      13.45
C       5.03       7.51      14.49
C       3.95       8.42      14.38
C       3.15       8.31      13.21
C       1.45       5.34       9.46
C       1.74       4.55       8.32
C       3.08       4.11       8.18
C       4.04       4.36       9.18
C       2.19       6.91      11.32
C       4.80       5.45      11.30
C      19.12       8.37      11.29
C       0.84       4.53      15.44
C       3.66       9.46       7.33
C       3.54       9.29      15.44
C       0.73       4.36       7.32
C       1.55      13.90       5.37
C       1.83      13.56       6.72
C       2.57      12.42       7.05
C       3.03      11.52       6.06
C       2.84      11.91       4.71
C       2.14      13.09       4.37
C       2.07      13.51       8.81
C      11.12      11.33      28.13
C      11.27      11.74      29.48
C      11.88      12.95      29.80
C      12.43      13.80      28.82
C      12.20      13.43      27.47
C      11.53      12.24      27.13
C      11.20      11.97      31.56
C      18.33       3.97      16.75
C      17.90       3.91      18.10
C      16.54       3.83      18.43
C      15.53       3.88      17.44
C      15.97       3.85      16.09
C      17.33       3.87      15.75
C      17.74       3.72      20.19
C       2.87      33.79       5.34
C       2.58       0.28       6.69
C       1.83       1.40       7.02
C       1.36       2.31       6.05
C       1.57       1.94       4.69
C       2.28       0.77       4.35
C       2.33       0.30       8.78
C      12.92       2.53      28.18
C      12.77       2.14      29.53
C      12.22       0.91      29.88
C       1.72      16.95      28.82
C       1.96      17.31      27.47
C      12.58       1.57      27.20
C      12.82       1.97      31.63
C       5.59       9.85      16.75
C       6.02       9.92      18.10
C       7.38       9.99      18.43
C       8.39       9.94      17.45
C       7.96       9.96      16.09
C       6.59       9.95      15.75
C       6.18      10.10      20.19
C       8.01      31.49       0.84
C       7.87      30.08       0.93
C       6.38      30.08      33.01
C       6.25      31.49      33.11
C       5.41      32.15      32.18
C       4.84      31.50      31.05
C       5.11      30.12      30.92
C       5.80      29.41      31.91
C       8.41      29.41       2.06
C       9.02      30.13       3.10
C       9.28      31.52       2.98
C       8.80      32.16       1.81
C       8.03      33.09      33.12
C      17.57      17.58      33.04
C      16.07      17.58       0.96
C       6.23      33.10       0.82
C      15.53      18.25       2.07
C      14.90      17.53       3.11
C       4.92      33.09       2.94
C       5.43      32.43       1.79
C       8.89      32.42      32.21
C       9.50      33.06      31.10
C      18.82      17.54      30.93
C      18.13      18.25      31.93
C       7.13      32.29      34.04
C      16.80      18.36      34.05
C       7.14      29.30      34.03
C       9.82      32.31       4.05
C       4.15      32.29      30.06
C       4.37      32.29       4.01
C      10.23      32.28      30.14
C       2.44      25.01      23.62
C       3.72      25.61      23.71
C       4.47      24.31      21.66
C       3.33      23.47      21.78
C       3.18      22.41      20.84
C       4.01      22.26      19.70
C       5.06      23.20      19.55
C       5.33      24.16      20.55
C       4.02      26.42      24.83
C       3.09      26.59      25.87
C       1.77      26.11      25.75
C       1.46      25.36      24.59
C       1.05      24.20      21.78
C      19.45      23.36      21.66
C       0.66      22.06      23.71
C       1.95      22.66      23.62
C       0.36      21.25      24.83
C       1.29      21.07      25.87
C       2.61      21.55      25.75
C       2.92      22.30      24.59
C       1.20      25.25      20.84
C       0.37      25.40      19.70
C      18.86      24.46      19.55
C      18.59      23.51      20.55
C       2.19      23.83      22.70
C      19.16      22.30      22.67
C       4.76      25.36      22.67
C       0.80      26.19      26.82
C       3.67      21.29      18.71
C       3.58      21.48      26.82
C       0.71      26.38      18.71
C      10.82      23.46      12.25
C       9.66      24.27      12.33
C      10.41      25.57      10.29
C      11.70      25.00      10.40
C      12.70      25.40       9.46
C      12.41      26.19       8.33
C      11.07      26.63       8.18
C      10.11      26.39       9.17
C       8.81      24.13      13.45
C       9.12      23.23      14.49
C      10.20      22.33      14.38
C      11.00      22.43      13.21
C      12.22      22.66      10.40
C      13.51      22.10      10.29
C      14.26      23.40      12.33
C      13.10      24.21      12.25
C      15.11      23.54      13.45
C      14.80      24.43      14.49
C      13.72      25.34      14.38
C      12.92      25.23      13.22
C      11.22      22.27       9.46
C      11.51      21.48       8.32
C      12.85      21.04       8.18
C      13.81      21.28       9.17
C      11.96      23.83      11.32
C      14.57      22.38      11.30
C       9.35      25.29      11.30
C      10.61      21.45      15.44
C      13.43      26.39       7.33
C      13.31      26.21      15.44
C      10.50      21.29       7.32
C      11.32      30.82       5.37
C      11.60      30.48       6.72
C      12.34      29.35       7.05
C      12.80      28.44       6.06
C      12.61      28.83       4.71
C      11.90      30.00       4.37
C      11.84      30.43       8.81
C       1.35      28.25      28.13
C       1.50      28.66      29.47
C       2.11      29.87      29.80
C       2.66      30.72      28.82
C       2.42      30.35      27.47
C       1.76      29.16      27.13
C       1.43      28.89      31.56
C       8.56      20.90      16.75
C       8.13      20.83      18.10
C       6.77      20.75      18.43
C       5.76      20.80      17.44
C       6.20      20.77      16.09
C       7.57      20.79      15.75
C       7.97      20.64      20.19
C      12.60      16.85       5.37
C      12.32      17.19       6.72
C      11.58      18.33       7.05
C      11.12      19.22       6.06
C      11.31      18.84       4.71
C      12.02      17.66       4.37
C      12.08      17.24       8.81
C       3.03      19.42      28.13
C       2.88      19.01      29.47
C       2.27      17.80      29.80
C      11.73       0.01      28.91
C      11.97       0.35      27.56
C       2.62      18.51      27.13
C       2.96      18.78      31.56
C      15.36      26.77      16.75
C      15.80      26.84      18.10
C      17.15      26.92      18.42
C      18.16      26.87      17.44
C      17.73      26.89      16.09
C      16.36      26.87      15.75
C      15.95      27.03      20.18
H       9.54       1.11      30.12
H       8.35       2.32      31.78
H       5.93       2.35       2.11
H       4.91       1.15       3.89
H      15.06      14.49       1.75
H      18.69      14.51      32.32
H      15.00      16.24      32.33
H      14.59      12.70      30.09
H      15.72      11.49      31.80
H      18.63      16.26       1.75
H      18.02      11.49       2.19
H      19.03      12.71       3.96
H       7.80       2.11       0.37
H       6.37       2.04      33.46
H      16.18      11.72       0.42
H      17.63      11.77      33.53
H       8.51       7.52      18.74
H       8.04       5.93      20.45
H       9.25       3.85      24.92
H      10.82       3.59      26.69
H      13.64       5.83      24.52
H      11.78       8.94      20.96
H      12.14       4.87      20.95
H      15.40       6.30      18.71
H      15.88       7.88      20.42
H      10.31       8.00      24.52
H      14.73       9.88      24.94
H      13.18      10.14      26.72
H       8.49       5.62      23.20
H       9.25       4.41      22.16
H      15.46       8.17      23.17
H      14.69       9.39      22.16
H       3.38       3.62       7.33
H       4.99       4.00       9.04
H       6.14       5.99      13.56
H       5.59       7.47      15.34
H       2.31       8.90      13.13
H       0.52       5.74       9.57
H       3.86       8.08       9.57
H       1.01      10.20       7.33
H      18.93       9.83       9.04
H       2.06       4.92      13.13
H      17.78       7.84      13.56
H      18.33       6.36      15.34
H       5.02       4.51      11.79
H       5.70       5.79      10.78
H      18.90       9.32      11.79
H      18.22       8.03      10.78
H       2.06      13.34       3.39
H       3.21      11.33       3.96
H       2.01      13.75       9.80
H       4.50      10.24       5.70
H       0.99      15.76       5.77
H      11.34      12.04      26.14
H      12.51      14.05      26.71
H      11.01      11.80      32.55
H      12.81      15.71      28.46
H       9.78       9.91      28.52
H      17.60       3.82      14.77
H      15.28       3.81      15.33
H      17.98       3.65      21.18
H      13.69       3.25      17.08
H       0.69       3.54      17.15
H       2.36       0.52       3.36
H       1.19       2.52       3.94
H       2.38       0.04       9.76
H      19.43       3.58       5.70
H      13.16      14.99       5.77
H      12.75       1.76      26.21
H       1.64      16.70      26.71
H      12.97       2.18      32.62
H       1.34      15.04      28.46
H      14.17       4.02      28.56
H       6.33      10.01      14.77
H       8.65       9.99      15.34
H       5.94      10.18      21.18
H      10.24      10.55      17.09
H       3.70      10.30      17.14
H      19.10      18.04      30.09
H      17.97      19.25      31.80
H      15.67      19.26       2.19
H      14.66      18.04       3.96
H       5.33      31.42       1.71
H       9.01      31.41      32.32
H       5.30      33.16      32.28
H       4.81      29.61      30.08
H       5.95      28.41      31.79
H       8.91      33.17       1.73
H       8.25      28.41       2.18
H       9.25      29.63       3.96
H      17.51      19.03       0.42
H      16.06      18.98      33.53
H       6.43      28.64       0.39
H       7.88      28.68      33.51
H      18.29      24.45      18.71
H      17.81      22.87      20.42
H      18.95      20.87      24.94
H       0.97      20.61      26.72
H       3.85      22.73      24.51
H       2.01      25.87      20.95
H       2.37      21.80      20.95
H       5.63      23.22      18.71
H       6.11      24.80      20.42
H       0.53      24.94      24.51
H       4.97      26.80      24.94
H       3.41      27.05      26.72
H      18.23      22.58      23.17
H      19.00      21.35      22.16
H       5.69      25.08      23.17
H       4.92      26.31      22.15
H      13.15      20.55       7.33
H      14.76      20.92       9.04
H      15.91      22.91      13.56
H      15.36      24.39      15.34
H      12.08      25.82      13.13
H      10.29      22.66       9.57
H      13.63      25.00       9.57
H      10.77      27.12       7.34
H       9.16      26.75       9.04
H      11.83      21.84      13.13
H       8.01      24.76      13.56
H       8.56      23.28      15.34
H      14.79      21.43      11.79
H      15.47      22.71      10.78
H       9.13      26.24      11.79
H       8.45      24.96      10.78
H      11.82      30.26       3.39
H      12.98      28.25       3.96
H      11.78      30.68       9.79
H      14.27      27.16       5.70
H      10.75      32.68       5.76
H       1.57      28.96      26.14
H       2.73      30.97      26.71
H       1.24      28.72      32.55
H       3.03      32.63      28.46
H       0.02      26.82      28.52
H       7.83      20.74      14.77
H       5.51      20.74      15.33
H       8.21      20.57      21.18
H       3.92      20.17      17.08
H      10.46      20.46      17.15
H      12.10      17.41       3.39
H      10.94      19.42       3.95
H      12.14      16.99       9.80
H       9.65      20.51       5.70
H       3.44      31.93       5.72
H       2.80      18.71      26.14
H      11.70      33.55      26.81
H       3.14      18.95      32.55
H      11.43      31.92      28.60
H       4.36      20.84      28.52
H      16.09      26.93      14.76
H      18.41      26.93      15.33
H      15.72      27.10      21.17
H       0.46      27.49      17.08
H      13.47      27.22      17.14
N       2.72      12.42       8.37
N       3.77      10.40       6.34
N       0.86      15.05       5.10
N      11.81      13.08      31.13
N      13.04      15.00      29.09
N      10.46      10.15      27.86
N      16.47       3.70      19.75
N      14.19       3.80      17.71
N       0.14       4.00      16.48
N       1.67       1.39       8.35
N       0.62       3.42       6.33
N      13.29      15.69       5.10
N      12.27       0.82      31.21
N       1.11      15.75      29.09
N      13.52       3.73      27.89
N       7.45      10.12      19.75
N       9.73      10.00      17.72
N       4.24       9.83      16.48
N      12.49      29.35       8.37
N      13.54      27.32       6.34
N      10.62      31.97       5.10
N       2.04      30.00      31.12
N       3.26      31.92      29.09
N       0.69      27.07      27.86
N       6.70      20.62      19.75
N       4.42      20.72      17.72
N       9.91      20.92      16.48
N      11.43      18.32       8.37
N      10.38      20.35       6.33
N       3.56      32.64       5.06
N       2.34      17.67      31.12
N      11.16      32.64      29.20
N       3.69      20.60      27.86
N      17.22      27.05      19.75
N      19.50      26.94      17.71
N      14.01      26.75      16.48
O      14.25      16.68      30.03
O      19.13      16.68       4.13
O      14.56      14.07       4.13
O      19.44      14.07      30.03
O      12.13       4.01      18.65
O       9.69       8.24      26.89
O      14.22       5.65      26.90
O      11.79       9.79      18.66
O       4.62       8.51       7.27
O       2.18       4.29      15.51
O       2.21       9.55      15.50
O      19.30       5.30       7.28
O       1.47      14.26       7.83
O      10.85      11.08      30.59
O      18.68       3.87      19.21
O      12.68      16.49       7.83
O      13.14       2.85      30.64
O       5.24       9.96      19.21
O       4.48      33.60      30.02
O       9.36      33.59       4.11
O       4.81      31.01       4.08
O       9.90      30.96      30.09
O       2.36      20.93      18.65
O      19.46      25.16      26.89
O       4.46      22.51      26.89
O       2.02      26.73      18.65
O      14.39      25.43       7.27
O      11.95      21.21      15.51
O      11.97      26.47      15.51
O       9.53      22.24       7.27
O      11.24      31.18       7.83
O       1.08      28.00      30.59
O       8.91      20.79      19.21
O       2.94      33.41       7.79
O       3.30      19.67      30.59
O      15.01      26.88      19.21
