252

Cu      14.05      15.92      11.90
Cu      15.36      19.02      14.09
Cu      15.31      15.59      15.45
Cu       4.82       5.19       0.81
Cu       3.52       8.31       2.98
Cu       3.56       4.85       4.28
Cu      14.04      16.30      21.40
Cu      15.34      13.18      19.22
Cu      15.31      16.64      17.92
Cu       4.81       5.56      10.30
Cu       3.50       2.47       8.11
Cu       3.56       5.90       6.76
H       5.64      19.02       4.52
H      14.09      17.05       5.64
H      10.79      19.51       6.92
H       7.12       2.68       5.87
H       2.06       2.26       5.20
H       9.95       5.71       3.35
H       7.32      17.46      11.56
H       9.03      19.45      14.86
H      11.07      18.70      13.15
H      11.55      19.12      11.01
H       8.71      15.98      10.25
H       9.73      15.61       8.03
H      12.65      18.67       8.86
H      11.32      10.31       1.38
H       3.93      11.00       4.99
H      10.63      12.82       2.32
H      12.35      12.43       6.61
H      11.43      14.70       3.04
H      11.31      16.75       4.39
H      12.31      14.51       7.94
H       7.87       3.95       3.84
H       8.47      10.97      15.60
H       9.49       9.00      16.72
H      12.79      11.46      18.02
H      11.75      13.42      16.97
H       7.35      12.99      16.32
H       8.90      16.45      14.48
H       2.08       6.72       0.46
H       9.86       8.71       3.76
H       7.81       7.97       2.05
H      12.02      11.08      22.11
H      14.86       7.94      21.35
H      13.85       7.57      19.13
H      10.92      10.62      19.95
H       2.84       2.26      12.49
H      10.22       2.93      16.09
H      12.98       4.78      13.42
H      11.26       4.38      17.71
H      12.16       6.66      14.14
H      12.26       8.70      15.49
H      11.28       6.46      19.04
H      10.99      14.69      14.93
H      10.39      10.52       6.60
H       9.37      12.49       5.48
H       6.08      10.02       4.18
H       7.11       8.06       5.24
H      11.52       8.49       5.89
H       9.96       5.03       7.73
H      16.78      14.77      21.75
H       9.01      12.78      18.45
H      11.06      13.52      20.15
H       6.85      10.40       0.10
H       4.00      13.55       0.85
H       5.02      13.92       3.07
H       7.95      10.87       2.25
H      16.03      19.23       9.72
H       8.64      18.56       6.12
H       5.89      16.71       8.78
H       7.60      17.11       4.50
H       6.71      14.83       8.06
H       6.60      12.78       6.72
H       7.58      15.03       3.16
H       7.88       6.79       7.27
H      13.23       2.47      17.69
H       4.77       4.44      16.56
H       8.08       1.98      15.28
H      11.75      18.80      16.33
H      16.81      19.23      17.00
H       8.92      15.78      18.85
H      11.54       4.03      10.64
H       9.84       2.04       7.35
H       7.79       2.79       9.05
H       7.31       2.36      11.19
H      10.15       5.51      11.95
H       9.13       5.88      14.17
H       6.21       2.82      13.34
H       7.55      11.18      20.82
H      14.94      10.49      17.21
H       8.24       8.67      19.89
H       6.52       9.06      15.60
H       7.43       6.79      19.16
H       7.56       4.74      17.81
H       6.56       6.98      14.26
H      10.99      17.54      18.36
W      13.59      17.10      14.17
W       5.29       6.38       3.08
W      13.58      15.11      19.13
W       5.27       4.39       8.03
C      12.37      18.14       6.35
C      14.16      19.12       5.05
C      13.59      18.02       5.67
C      11.72      19.39       6.38
C       8.83       1.58       5.12
C       7.61       1.71       5.78
C      10.85       2.95       4.72
C       9.98       4.72       3.80
C       8.05      17.89      12.24
C       8.98      18.92      13.92
C      10.00      18.60      13.06
C      10.05      17.60      10.76
C      11.16      18.35      10.37
C       9.56      16.58       9.94
C      10.14      16.37       8.69
C      11.78      18.09       9.15
C      11.25      17.13       8.27
C      11.80      15.78       6.26
C      11.66      10.83       2.27
C      12.73      11.12       4.14
C      11.30      12.07       2.73
C      11.92      13.43       4.73
C      12.13      13.38       6.11
C      11.63      14.65       4.11
C      11.54      15.81       4.88
C      12.09      14.55       6.87
C       8.93       3.87       4.04
C      11.21      10.09      17.44
C       9.41      11.07      16.14
C       9.99       9.97      16.76
C      11.85      11.34      17.48
C      10.04      12.32      16.22
C      11.27      12.45      16.88
C       8.02      13.68      15.83
C       8.88      15.47      14.91
C      10.83       7.15       1.13
C       9.91       8.18       2.82
C       8.88       7.86       1.96
C      13.53       9.57      21.86
C      12.41      10.31      21.46
C      14.02       8.55      21.04
C      13.43       8.33      19.79
C      11.80      10.05      20.25
C      12.33       9.09      19.37
C      11.78       7.73      17.36
C      11.96       2.78      13.37
C      10.88       3.06      15.24
C      12.31       4.02      13.83
C      11.68       5.37      15.83
C      11.47       5.33      17.21
C      11.96       6.60      15.21
C      12.03       7.76      15.97
C      11.50       6.50      17.97
C       9.93      14.61      15.14
C       7.65      11.40       4.76
C       9.45      10.42       6.06
C       8.88      11.52       5.44
C       7.02      10.15       4.73
C       8.82       9.17       5.99
C       7.60       9.03       5.32
C      10.84       7.80       6.37
C       9.98       6.02       7.29
C       8.04      14.34      21.07
C       8.96      13.31      19.39
C       9.98      13.62      20.24
C       5.34      11.92       0.34
C       6.46      11.18       0.74
C       4.85      12.94       1.17
C       5.43      13.16       2.41
C       7.07      11.44       1.96
C       6.54      12.40       2.83
C       7.08      13.76       4.85
C       6.90      18.71       8.83
C       7.98      18.43       6.96
C       6.55      17.47       8.38
C       7.19      16.11       6.38
C       7.40      16.16       4.99
C       6.91      14.89       6.99
C       6.83      13.73       6.23
C       7.36      14.99       4.23
C       8.94       6.88       7.06
C       6.50       3.35      15.86
C       4.70       2.37      17.15
C       5.27       3.47      16.53
C       7.14       2.10      15.82
C      10.03      19.91      17.08
C      11.26      19.77      16.42
C       8.02      18.54      17.48
C       8.89      16.76      18.41
C      10.81       3.60       9.96
C       9.89       2.57       8.28
C       8.87       2.89       9.14
C       8.82       3.89      11.44
C       7.70       3.14      11.84
C       9.31       4.90      12.27
C       8.72       5.12      13.51
C       7.09       3.40      13.05
C       7.62       4.36      13.93
C       7.07       5.71      15.95
C       7.21      10.66      19.93
C       6.13      10.36      18.06
C       7.57       9.42      19.48
C       6.94       8.06      17.48
C       6.73       8.11      16.09
C       7.24       6.84      18.09
C       7.32       5.68      17.33
C       6.78       6.94      15.33
C       9.93      17.62      18.16
S      13.96      18.20      12.28
S      14.51      17.96      16.01
S      13.54      14.90      13.90
S       4.92       7.47       1.18
S       4.38       7.26       4.90
S       5.36       4.18       2.80
S      13.95      14.02      21.02
S      14.49      14.23      17.30
S      13.50      17.31      19.40
S       4.90       3.29       9.92
S       4.36       3.53       6.20
S       5.33       6.59       8.30
Br      14.31      14.69       9.96
Br       9.31       6.66      21.06
Br       9.55      14.82       1.15
Br       4.55       6.80      12.24
N       7.77      18.47      13.40
N       9.40      17.94      11.99
N      11.80      17.00       6.98
N      12.55      10.24       3.16
N      11.98      12.25       3.92
N      11.16       4.15       4.23
N       9.50       2.73       4.62
N      11.11       7.73       2.30
N       9.48       7.21       0.88
N      11.78       8.95      18.08
N      11.08       2.18      14.26
N      11.62       4.20      15.02
N       7.70      14.88      15.36
N       9.37      13.47      15.72
N       7.76      13.75      19.90
N       9.38      14.28      21.32
N       7.09      12.54       4.13
N       7.79      19.31       7.94
N       7.24      17.29       7.18
N      11.17       6.60       6.85
N       9.50       8.02       6.49
N      11.09       3.02       8.80
N       9.47       3.54      10.22
N       7.07       4.49      15.23
N       6.32      11.24      19.04
N       6.88       9.24      18.28
N       7.70      17.34      17.97
N       9.37      18.75      17.59
