624

C       0.80       0.28       7.84
C       8.32      13.78       6.44
C       9.29      13.72       5.41
C      15.27       1.28      68.15
C       0.73       0.53      40.41
C       1.14       1.02      42.83
C       0.62       0.21      41.80
C       0.03       0.80      56.01
C      14.58       2.48      58.07
C      14.47       2.86      56.72
C      15.04       2.02      55.73
C       8.34      13.51      55.00
C       9.10      12.33      55.27
C       9.58      11.46      54.26
C       9.34      11.78      52.92
C       8.66      13.65      87.35
C       0.43       0.20      88.74
C       1.41       0.22      89.77
C      10.06      13.57      87.07
C       0.22       0.54      23.53
C       0.86       1.78      23.82
C       0.61       1.06      21.11
C       0.32       0.36       2.00
C       0.29       1.49       1.15
C       0.29       1.34      93.80
C       0.21       0.49       3.38
C       0.23       0.36      61.86
C       1.19       0.97      62.72
C       1.06       0.89      64.12
C       0.39       0.31      60.48
C      12.80       5.94      55.42
C      12.45       6.63      54.22
C      11.74       7.85      54.28
C      13.50       4.71      55.36
C       8.10      13.92      14.81
C       9.06      13.28      15.63
C       8.91      13.21      17.03
C       8.27      13.99      13.42
C      15.58       1.27      78.40
C      15.67       1.16      79.81
C       0.97       0.45      49.10
C       1.89       1.27      48.39
C       2.07       1.11      46.99
C       0.71       0.63      50.46
C       8.64      13.86       7.84
C       0.48       0.20       6.45
C       1.45       0.14       5.42
C       7.43      14.85      68.18
C       8.44      14.18      40.38
C       8.82      14.70      42.81
C       8.32      13.87      41.78
C       7.83      14.35      56.06
C       6.74      16.03      58.13
C       6.64      16.43      56.79
C       7.19      15.60      55.79
C       0.57      27.10      54.97
C       1.27      25.89      55.27
C       1.78      25.02      54.28
C       1.63      25.36      52.93
C       0.75       0.10      87.35
C       8.34      13.75      88.74
C       9.31      13.78      89.78
C       2.14       0.02      87.06
C       8.06      14.11      23.52
C       8.69      15.36      23.81
C       8.45      14.64      21.10
C       8.15      13.93       1.99
C       8.14      15.06       1.14
C       8.14      14.92      93.80
C       8.04      14.06       3.38
C       8.08      13.90      61.90
C       9.03      14.52      62.75
C       8.90      14.45      64.15
C       8.23      13.84      60.52
C       4.97      19.51      55.49
C       4.62      20.19      54.29
C       3.89      21.40      54.34
C       5.68      18.29      55.44
C       0.26       0.34      14.81
C       1.22      26.86      15.63
C       1.07      26.78      17.03
C       0.43       0.41      13.42
C       7.87      14.88      78.40
C       8.01      14.79      79.80
C       8.23      14.01      49.16
C       9.28      14.55      48.37
C       9.26      14.41      46.96
C       8.17      14.18      50.54
C       7.97      13.93      10.29
C      14.59       2.45      68.51
C       0.11       0.48      57.41
C      15.25       1.30      58.44
C       8.63      12.94      52.57
C       8.13      13.77      53.60
C       8.15      13.64      93.20
C      11.37       8.43      55.52
C      11.74       7.75      56.70
C      12.43       6.53      56.65
C      10.67       9.65      55.59
C       1.57      27.12      44.91
C       0.13       0.36      10.30
C       6.75      16.03      68.54
C       7.90      14.01      57.45
C       0.99      26.56      52.55
C       0.47       0.24      53.57
C       0.30       0.06      93.20
C       3.51      21.98      55.57
C       3.87      21.30      56.76
C       4.58      20.09      56.72
C       2.79      23.19      55.64
C       8.22      13.72      46.29
C       8.19      13.57      44.90
C       2.20       0.31       8.12
C       1.41       1.76      40.14
C      10.04      13.88       8.12
C       9.11      15.40      40.11
C       1.25       2.25      21.47
C       9.09      15.84      21.46
C       2.81       0.14       5.78
C       3.20       0.24       7.12
C       1.93       2.60      41.14
C       1.78       2.23      42.49
C      10.67      13.73      89.42
C      11.06      13.62      88.07
C       1.38       2.63      22.82
C      10.65      13.72       5.77
C      11.04      13.81       7.12
C       9.64      16.25      41.11
C       9.49      15.88      42.45
C       2.76       0.17      89.40
C       3.14       0.06      88.06
C       9.22      16.21      22.81
C       5.29       0.33       8.47
C       2.88       4.48      39.81
C      13.15      13.53      86.72
C       2.38       4.49      24.15
C      13.13      13.90       8.47
C      10.66      18.09      39.77
C       5.24      27.10      86.70
C      10.21      18.06      24.15
C       1.36       0.12      46.27
C       8.31      13.49      81.83
C       0.34      27.15      37.95
C       3.07       5.71      24.08
C      10.91      19.29      24.08
C       8.81      12.43      30.94
C       0.97      26.01      30.95
C       0.29      26.98      81.82
C       7.39      14.83      58.49
C      15.49       0.33       8.90
C      14.09       0.34       8.62
C      13.09       0.37       9.62
C      13.48       0.40      10.96
C       6.99      13.97      11.33
C      15.48       0.65      70.58
C       0.03       0.41      69.18
C      14.31       2.74      69.86
C      14.75       1.85      70.86
C       8.09      13.34      71.66
C       8.78      12.12      71.38
C       9.25      11.23      72.38
C       9.03      11.55      73.72
C       8.36      12.73      74.09
C       7.91      13.60      73.06
C       7.92      13.33      39.33
C       8.08      13.61      37.93
C       7.60      12.77      36.89
C       6.89      11.61      37.25
C       6.69      11.27      38.60
C       7.21      12.12      39.60
C       7.67      13.63      86.30
C       6.27      13.56      86.58
C       5.28      13.57      85.57
C       5.67      13.64      84.23
C      14.75       0.15      83.88
C       0.06       0.15      84.90
C       7.56      13.25      24.58
C       7.81      13.47      25.97
C       7.33      12.62      27.00
C       6.61      11.48      26.63
C       6.33      11.19      25.28
C       6.79      12.08      24.29
C       0.12       0.22      22.14
C       8.19      12.50      94.04
C       8.18      12.65       1.39
C       8.04      13.53      91.81
C       7.82      13.76      64.76
C       6.87      13.16      63.91
C       6.99      13.23      62.51
C       7.77      13.60      66.14
C       8.03      12.76      33.25
C       8.85      12.10      32.31
C       0.10      27.01      30.47
C      14.96       0.54      31.42
C      15.03       0.20      32.80
C       8.01      12.33      34.58
C       0.07       0.15      29.10
C       1.74      13.91       8.34
C       0.97      13.85       7.15
C      15.24      13.85       7.19
C       6.71       0.33       8.43
C       7.47       0.41       9.62
C       8.88       0.39       9.57
C       3.15      13.91       8.27
C      11.03       8.21      71.09
C      11.46       7.58      69.91
C      12.17       6.37      69.94
C      12.47       5.73      71.17
C      12.03       6.35      72.37
C      11.33       7.58      72.32
C      10.33       9.43      71.03
C      13.19       4.51      71.21
C       3.56       5.71      39.87
C       3.89       6.39      38.67
C       4.58       7.62      38.70
C       4.97       8.22      39.92
C       4.65       7.53      41.13
C       3.95       6.31      41.09
C       5.67       9.44      39.96
C       9.52      27.08      86.88
C       8.74      27.08      88.06
C       7.34      27.09      88.00
C      14.57      13.51      86.76
C      15.33      13.48      85.57
C       1.06      13.50      85.61
C      10.93      27.09      86.96
C       3.45       6.38      25.26
C       4.16       7.60      25.21
C       4.49       8.21      23.98
C       4.10       7.55      22.79
C       3.41       6.32      22.84
C       5.21       9.43      23.93
C      15.62       0.20      17.68
C      14.66       0.86      16.87
C      14.82       0.93      15.47
C      15.47       0.07      19.06
C      15.63       0.13      77.57
C       8.12      13.54      80.45
C       8.08      12.37      79.64
C       7.95      12.47      78.24
C      15.55       0.27      76.17
C       0.47      26.44      46.98
C       0.27      26.61      48.37
C       7.65      13.90       8.90
C       6.25      13.91       8.61
C       5.25      13.95       9.61
C       5.64      13.98      10.96
C      14.83       0.40      11.33
C       7.63      14.22      70.61
C       7.87      13.98      69.21
C       6.47      16.32      69.88
C       6.91      15.42      70.88
C       0.26      26.92      71.64
C       0.94      25.70      71.36
C       1.41      24.82      72.36
C       1.19      25.14      73.71
C       0.52      26.33      74.07
C       0.07       0.04      73.04
C       0.18      26.85      39.35
C      15.50      26.34      36.91
C      14.76      25.19      37.27
C      14.58      24.83      38.61
C      15.12      25.66      39.62
C      15.42       0.08      86.30
C      14.03       0.00      86.60
C      13.02       0.02      85.60
C      13.40       0.10      84.25
C       7.03      13.68      83.87
C       8.00      13.69      84.90
C      15.40      26.83      24.59
C      15.65      27.05      25.98
C      15.17      26.20      27.01
C      14.45      25.05      26.64
C      14.17      24.77      25.30
C      14.63      25.66      24.30
C       7.96      13.80      22.13
C       0.34      26.08      94.05
C       0.35      26.23       1.39
C       0.17      27.11      91.82
C      15.66       0.20      64.72
C      14.69      26.76      63.87
C      14.82      26.84      62.47
C      15.60       0.04      66.11
C       0.21      26.33      33.27
C       1.02      25.67      32.32
C       7.94      13.44      30.46
C       7.12      14.11      31.40
C       7.17      13.78      32.78
C       0.20      25.90      34.60
C       7.92      13.73      29.09
C       9.58       0.34       8.34
C       8.81       0.28       7.15
C       7.41       0.27       7.20
C      14.54      13.91       8.43
C      15.31      13.98       9.62
C       1.04      13.97       9.57
C      10.99       0.33       8.27
C       3.19      21.79      71.09
C       3.62      21.15      69.91
C       4.33      19.94      69.95
C       4.63      19.31      71.18
C       4.19      19.93      72.38
C       3.49      21.16      72.33
C       2.49      23.01      71.02
C       5.35      18.09      71.23
C      11.37      19.31      39.83
C      11.73      19.99      38.65
C      12.44      21.20      38.68
C      12.82      21.79      39.91
C      12.48      21.11      41.11
C      11.76      19.89      41.07
C      13.53      23.01      39.96
C       1.76      13.51      86.85
C       1.00      13.52      88.03
C      15.27      13.53      88.00
C       6.65      27.08      86.76
C       7.42      27.05      85.57
C       8.83      27.07      85.64
C       3.17      13.52      86.91
C      11.29      19.95      25.26
C      11.99      21.17      25.22
C      12.33      21.78      23.99
C      11.94      21.13      22.79
C      11.25      19.89      22.84
C      13.05      23.00      23.94
C       7.78      13.78      17.67
C       6.82      14.44      16.86
C       6.98      14.51      15.46
C       7.64      13.64      19.05
C       7.86      13.72      77.58
C       0.12      27.05      80.44
C       0.13      25.90      79.61
C       0.05      26.02      78.20
C       7.72      13.83      76.19
C       7.19      13.17      47.09
C       7.19      13.31      48.49
H       8.93      13.93      10.61
H       0.86       0.81      37.64
H      14.94       2.35      54.77
H       9.34      12.08      56.22
H       9.69      11.16      52.18
H       1.02       0.26      84.59
H       0.55       0.67      26.29
H       0.93       2.12      24.77
H       0.24       2.19      93.23
H       0.25       2.43       1.54
H      15.42       1.30       3.73
H       1.32       0.19      60.15
H       9.42      11.92      30.30
H      11.49       8.30      53.40
H      13.62       6.49      52.75
H      13.76       4.32      54.46
H       9.62      12.72      17.57
H       9.89      12.85      15.21
H       9.11      13.62      13.04
H      15.67       2.02      80.37
H      15.51       2.21      78.00
H      15.43       1.18      75.79
H       0.90       1.52      50.85
H       1.09       0.35      10.61
H       8.59      14.43      37.62
H       7.14      15.95      54.84
H       1.42      25.60      56.22
H       2.01      24.74      52.20
H       8.96      13.80      84.59
H       8.39      14.25      26.28
H       8.77      15.70      24.76
H       8.09      15.76      93.22
H       8.09      16.00       1.54
H       7.57      14.87       3.72
H       9.16      13.75      60.18
H       1.58      25.49      30.30
H       3.65      21.85      53.45
H       5.81      20.06      52.82
H       5.94      17.90      54.54
H       1.78      26.29      17.58
H       2.05      26.42      15.21
H       1.27       0.04      13.04
H       8.04      15.66      80.34
H       7.80      15.81      77.98
H       7.57      14.73      75.80
H       8.50      15.05      50.89
H      14.28       3.10      67.78
H      15.67       1.08      53.24
H      12.67       6.08      57.54
H      11.49       8.14      57.62
H      10.43      10.03      56.51
H       8.91      12.77      82.16
H       6.44      16.67      67.81
H       4.81      19.64      57.61
H       3.61      21.69      57.67
H       2.54      23.58      56.55
H      10.39      13.44      86.12
H       1.79       1.31      64.71
H       2.46      27.04      86.11
H       9.63      14.87      64.74
H       2.54       0.38       9.07
H       1.52       2.09      39.19
H      10.38      13.96       9.07
H       9.24      15.72      39.15
H       3.53       0.09       5.04
H       2.13       2.84      43.23
H      11.38      13.77      90.15
H       1.63       2.86      20.74
H       1.99       2.51      61.97
H       2.73       1.72      46.51
H       3.39       1.81      49.40
H      11.36      13.67       5.04
H       9.86      16.49      43.19
H       3.49       0.20      90.13
H       9.47      16.45      20.73
H       9.82      16.06      61.99
H      10.04      14.81      46.42
H      10.96      14.57      49.22
H       4.82       0.38       9.38
H       2.63       4.10      38.89
H      12.68      13.51      85.82
H       2.15       4.09      25.07
H      12.66      13.95       9.38
H      10.41      17.71      38.85
H       4.77      27.09      85.79
H       9.99      17.67      25.07
H       0.54      26.77      57.73
H       8.39      13.17      68.89
H       0.56      26.75      68.87
H      15.45       1.06      28.84
H       1.68      26.20      44.56
H       7.62      14.64      28.82
H      14.61      12.55      84.09
H       6.73      26.13      84.08
H       9.48      11.34      32.60
H       1.64      24.91      32.61
H       7.56      14.56      53.30
H       0.82      26.21      82.17
H       8.29      13.12      57.75
H       7.35      13.74       6.13
H      13.75       0.33       7.66
H      12.76       0.43      11.69
H      14.51       2.10      71.81
H       8.95      11.83      70.42
H       9.36      10.92      74.45
H      15.28       0.88      73.35
H       7.02      11.84      40.56
H       6.51      11.00      36.52
H       7.88      13.01      42.09
H      14.17       3.08      58.79
H      15.15       0.32      89.06
H       5.94      13.46      87.53
H       4.95      13.65      83.49
H       6.52      11.87      23.34
H       6.28      10.83      27.36
H       7.58      12.91      21.82
H       8.17      11.81       1.97
H       9.10      11.02      93.30
H       7.49      12.77      91.46
H       6.29      12.74      61.93
H       6.08      12.63      64.31
H       7.31      12.79      66.49
H      14.41       0.69      33.45
H      13.27       1.07      30.78
H       8.41      11.43      34.78
H      14.74      13.80       6.31
H       1.43      13.81       6.24
H       9.39       0.44      10.46
H       6.75       1.40      11.06
H       3.60      13.86       7.36
H      12.46       5.96      69.05
H      11.27       8.01      68.99
H      11.04       8.00      73.21
H      11.53       5.23      73.81
H      10.14       9.85      70.11
H      13.38       4.08      72.12
H       4.79       8.07      37.81
H       3.63       6.00      37.76
H       3.73       5.85      41.98
H       5.86       7.68      42.57
H       5.93       9.84      40.86
H       6.82      27.11      88.89
H       9.19      27.09      88.98
H       1.58      13.49      84.73
H      11.38      27.09      87.87
H       4.42       8.03      26.10
H       3.23       5.98      26.18
H       3.15       5.86      21.96
H       3.65       8.62      21.30
H       5.43       9.84      23.02
H      14.10       1.41      14.92
H      13.81       2.33      17.71
H      14.55      27.07      19.39
H       7.93      11.60      77.69
H       7.29      10.87      80.48
H      15.27      26.00      48.84
H      15.62      25.71      46.49
H      15.19       0.16       6.13
H       5.91      13.90       7.66
H       4.92      14.01      11.69
H       6.67      15.67      71.84
H       1.12      25.41      70.40
H       1.52      24.51      74.44
H       7.44      14.44      73.37
H      14.95      25.37      40.57
H      14.36      24.59      36.53
H       0.15      26.52      42.11
H       6.35      16.63      58.87
H       7.38      13.86      89.05
H      13.70      27.05      87.55
H      12.67       0.12      83.53
H      14.36      25.44      23.35
H      14.12      24.41      27.37
H      15.41      26.48      21.83
H       0.34      25.39       1.98
H       1.25      24.60      93.30
H      15.31      26.34      91.47
H      14.12      26.37      61.89
H      13.91      26.24      64.26
H      15.13      26.38      66.45
H       6.54      14.26      33.42
H       5.43      14.64      30.74
H       0.57      24.99      34.78
H       6.90       0.22       6.31
H       9.27       0.23       6.24
H       1.55      14.01      10.46
H      14.59      14.97      11.06
H      11.44       0.29       7.36
H       4.63      19.52      69.06
H       3.43      21.57      68.99
H       3.20      21.59      73.21
H       3.69      18.82      73.82
H       2.30      23.43      70.10
H       5.54      17.66      72.14
H      12.66      21.65      37.80
H      11.47      19.60      37.73
H      11.52      19.44      41.95
H      13.67      21.24      42.57
H      13.80      23.40      40.87
H      14.76      13.55      88.89
H       1.46      13.54      88.95
H       9.35      27.06      84.76
H       3.63      13.53      87.83
H      12.25      21.61      26.11
H      11.07      19.55      26.18
H      10.99      19.45      21.96
H      11.49      22.20      21.31
H      13.27      23.41      23.03
H       6.27      14.99      14.91
H       5.98      15.91      17.71
H       6.71      13.49      19.38
H       0.07      25.17      77.64
H      15.02      24.36      80.37
H       6.42      12.91      49.03
H       6.41      12.66      46.66
H       7.47      13.02      44.49
N       9.02      13.62       4.11
N      15.50       1.10      66.84
N       0.93       0.78      44.13
N      10.27      10.32      54.49
N      13.82       4.02      56.48
N       1.16       0.34      91.08
N       0.58       0.79      19.80
N       1.18       0.04       4.11
N       7.65      14.67      66.87
N       8.75      14.45      44.13
N       2.44      23.87      54.52
N       6.00      17.60      56.56
N       9.04      13.90      91.08
N       8.42      14.37      19.79
N       8.43      13.13      51.26
N       0.91      26.76      51.23
N       2.02       3.80      23.04
N       9.86      17.38      23.04
N       4.54       0.25       7.35
N       2.56       3.78      40.92
N      12.40      13.59      87.84
N      12.37      13.83       7.35
N      10.30      17.41      40.88
N       4.48       0.02      87.82
N       7.23      14.02      12.64
N      11.75       0.37       9.38
N       8.21      12.92      75.40
N       9.92      10.08      72.14
N      13.63       3.89      70.09
N       6.03      10.11      38.83
N       7.80      13.11      35.61
N      15.27       1.02      59.75
N      15.00       0.25      82.57
N       3.94      13.55      85.80
N       5.63      10.05      25.05
N       7.58      12.75      28.30
N      15.07       0.44      12.64
N       3.91      13.95       9.38
N       0.36      26.51      75.38
N       2.08      23.66      72.13
N       5.79      17.47      70.12
N      13.89      23.68      38.84
N       0.01      26.68      35.63
N       7.41      14.54      59.79
N       7.28      13.78      82.56
N      11.69      27.13      85.84
N      13.47      23.63      25.06
N      15.42      26.33      28.31
O      12.74       6.13      52.99
O       4.93      19.69      53.06
O       2.28       1.60      62.21
O       2.60       2.25      49.01
O      10.12      15.16      62.24
O      10.31      15.24      48.93
O       8.17      11.24      93.54
O      14.10       1.52      31.04
O       6.88       0.45      10.85
O      12.29       5.82      73.59
O       4.97       8.04      42.35
O      14.74      13.49      84.34
O       4.40       8.04      21.56
O      13.55       1.43      17.42
O       8.19      11.13      80.19
O       0.32      24.82      93.54
O       6.25      15.09      31.01
O      14.72      14.02      10.85
O       4.45      19.41      73.61
O      12.79      21.61      42.34
O       6.85      27.07      84.34
O      12.24      21.62      21.56
O       5.71      15.01      17.41
O       0.25      24.65      80.13
