23

Zn      13.70      10.74       1.57
Zn      13.70      10.74      -1.57
Zn      16.04      12.28       0.00
Zn      16.06       9.15       0.00
C      15.05       8.31       2.66
C      14.68      13.43      -2.36
O      13.80      12.50       2.46
O      15.67      13.44       1.55
O      11.78      10.52      -1.14
C      15.05       8.31      -2.66
O      14.20       9.26       2.79
O      15.81       8.11       1.65
C      18.55      10.83       0.00
O      13.80      12.50      -2.46
O      15.67      13.44      -1.55
O      11.78      10.52       1.14
O      14.20       9.26      -2.79
O      15.81       8.11      -1.65
C      11.20      10.52       0.00
O      14.87      10.71       0.00
O      17.97       9.69       0.00
O      17.98      11.97       0.00
C      14.68      13.43       2.36
