23

C       5.05       5.64      16.65
C       4.68       0.55      16.35
Zn       3.68       3.23      12.41
Zn       3.68       3.23      15.56
Zn       6.02       1.69      13.99
Zn       6.07       4.81      13.99
C       8.55       3.14      13.99
C       1.20       3.45      13.99
O       4.17       4.72      11.19
O       5.85       5.81      12.31
O       3.80       1.47      11.52
O       5.66       0.53      12.45
O       1.78       3.46      15.13
O       4.17       4.72      16.78
O       5.85       5.81      15.66
O       3.80       1.47      16.45
O       5.66       0.53      15.53
O       1.78       3.46      12.85
C       5.05       5.64      11.32
O       4.85       3.26      13.99
O       7.96       4.27      13.99
O       7.97       2.00      13.99
C       4.68       0.55      11.62
