23

Zn      16.30      24.71      12.41
C      15.31      27.40      11.62
Zn      16.30      24.71      15.56
Zn      13.96      26.25      13.99
Zn      13.92      23.14      13.99
C      14.93      22.31      16.65
C      15.31      27.40      16.35
O      15.81      23.23      11.19
O      14.14      22.14      12.31
O      16.19      26.47      11.52
O      14.33      27.42      12.45
O      18.21      24.49      15.13
O      15.81      23.23      16.78
O      14.14      22.14      15.66
O      16.19      26.47      16.45
O      14.33      27.42      15.53
O      18.21      24.49      12.85
C      11.43      24.81      13.99
O      15.13      24.69      13.99
O      12.02      23.67      13.99
O      12.02      25.95      13.99
C      18.79      24.49      13.99
C      14.93      22.31      11.32
