93

V       6.64       9.11       9.94
V       3.17       8.81      10.03
V       2.60      13.49       0.04
V       6.04       4.43      19.92
H       1.29       4.26       9.59
H       1.34      14.75       6.07
H       1.26       2.21       8.23
H       1.04       6.67       6.08
H       0.88       4.64       0.35
H       1.00       6.75       4.01
H       0.90       6.74       1.61
H       1.09       1.18       3.67
H       2.10       6.72      13.90
H       6.01       6.29      16.13
H       2.13       6.23      16.01
H       6.63      12.04       3.94
H       3.60      11.58       3.97
H       6.67      10.91       6.12
H       3.60      10.87       5.99
H       4.26      13.63      10.40
H       3.92       3.13      13.91
H       4.07      15.66      11.76
H       4.96      11.27      13.88
H       5.06      13.31      19.61
H       5.08      11.20      15.94
H       5.26      11.22      18.34
H       4.28      16.71      16.32
C       4.67      10.06       7.72
C       4.71      11.12      11.28
C       1.24       7.88      12.26
C       1.21       6.80       8.69
C       1.21       3.17       7.73
C       1.16       5.58       7.89
C       0.93       4.61       1.43
C       0.94       5.80       2.14
C       1.00       5.79       3.53
C       1.04       4.57       4.26
C       1.04       3.35       3.51
C       1.09       4.52       5.68
C       1.15       3.25       6.33
C       1.14       2.07       5.58
C       1.09       2.12       4.20
C       1.08       5.68       6.50
C       1.22       4.33       8.51
C       0.98       3.38       2.10
C       7.03       7.18      14.40
C       1.18       7.22      13.59
C       6.99       6.45      15.70
C       1.13       6.04      16.39
C       5.67      11.71       4.34
C       4.57      11.90       3.60
C       5.69      11.07       5.69
C       4.59      10.70       6.39
C       4.27      14.72      12.25
C       4.63      12.34      12.08
C       4.97      13.33      18.53
C       5.08      12.15      17.81
C       4.98      12.15      16.42
C       4.75      13.36      15.71
C       4.62      14.57      16.46
C       4.64      13.40      14.29
C       4.39      14.65      13.64
C       4.27      15.81      14.40
C       4.38      15.78      15.78
C       4.77      12.25      13.47
C       4.38      13.57      11.47
C       4.73      14.54      17.87
C       4.66      15.76      18.67
C       4.57      12.55       2.27
C       0.93       2.16       1.30
C       1.02       5.38      17.71
C       5.79       7.84      14.03
N       4.81       8.37      13.75
O       3.59      10.53      11.00
O       5.84       9.88       8.25
O       7.03       7.39       8.97
O       5.88      10.68      10.94
O       7.07       8.20      11.68
O       3.55       9.72       8.29
O       4.74       8.14      10.22
O       2.42       8.04      11.72
O       2.38       7.24       9.02
O       1.25       9.78       9.74
O       5.69      12.88       1.70
O       3.49      16.20      19.01
O       2.14       5.04      18.27
O       3.40      12.72       1.73
O       2.05       1.57       1.01
O       5.78      16.35      18.95
O       4.47       5.09      19.73
O       6.70       1.73       0.96
O       6.79       5.20      18.24
O       1.04      12.83       0.24
