12

Cu       0.38       3.26      13.69
H      -2.08       2.43      12.80
N      -2.41       3.75      14.22
N      -1.61       3.05      13.47
C       1.45       5.95      13.91
O       0.40       5.23      13.74
O       0.76       1.34      13.69
O       0.44       3.16      15.65
C       1.95       0.85      13.77
O       0.73       3.40      11.79
C       1.49       3.26      16.41
C       1.91       3.54      11.28
