31

C      10.39       7.95      16.79
C      10.97       8.58      18.01
C      10.27       9.54      18.75
C      10.87      10.12      19.87
O      15.23      11.16      18.51
C      12.89       8.80      19.50
C      12.27       8.21      18.39
O      18.91       9.38      20.75
O      17.51      11.14      20.48
C      14.27       8.40      19.88
C      15.31       9.34      20.05
C      16.61       8.92      20.43
C      16.84       7.56      20.66
C      14.57       7.04      20.07
C      15.05      10.79      19.74
C      17.71       9.92      20.55
H      19.63      10.13      20.71
C      15.83       6.62      20.48
H       9.26       9.83      18.44
H      12.62      10.20      21.12
H      12.79       7.46      17.80
H      17.83       7.25      20.99
H      16.03       5.57      20.65
H      13.78       6.30      19.92
O      10.97       6.95      16.27
O       9.31       8.45      16.28
O       8.87      11.23      20.68
C      12.17       9.75      20.24
O      10.85      11.97      21.37
O      14.61      11.58      20.62
C      10.16      11.16      20.69
