31

O       7.07      11.92      23.39
O       9.04      11.11      24.02
O       8.63       7.47      27.75
O       6.74       6.27      27.74
O      -1.00       9.33      23.68
O       0.40      11.03      24.21
O       2.76      10.78      26.06
O       3.26      11.50      24.00
H      -1.73      10.05      23.84
H       8.65       9.30      25.93
H       5.05       6.96      26.22
H       5.29      10.20      23.39
H       0.06       7.30      23.01
H       1.87       5.58      23.03
H       4.11       6.16      23.91
C       7.76      11.03      23.97
C       7.04       9.88      24.60
C       7.64       9.09      25.59
C       6.91       8.05      26.17
C       5.60       7.77      25.75
C       5.00       8.55      24.74
C       5.73       9.60      24.18
C       7.46       7.21      27.27
C       3.62       8.23      24.29
C       2.59       9.19      24.28
C       1.30       8.84      23.84
C       1.06       7.54      23.37
C       2.07       6.59      23.38
C       3.33       6.92      23.87
C       0.20       9.84      23.93
C       2.87      10.58      24.79
