22

O       3.48       9.11       3.46
O       4.90       7.42       3.41
O       3.60       9.00      -3.52
O       2.02       7.49      -3.37
H       4.78       9.76       0.89
H       1.91       5.76      -1.97
H       2.81       5.95       2.57
H       1.22       4.10      -0.56
H       1.67       4.21       1.70
H       4.36       9.68      -1.36
C       4.11       8.20       2.86
C       3.84       8.07       1.38
C       2.83       6.94      -0.57
C       3.12       6.98       0.84
C       4.29       9.06       0.54
C       2.10       5.82      -1.06
C       2.64       5.93       1.66
C       1.69       4.83      -0.22
C       1.96       4.89       1.14
C       4.02       9.01      -0.82
C       3.28       8.01      -1.40
C       2.94       8.15      -2.87
