22

O       2.03       1.55       9.62
O       3.46       0.76       8.13
O       2.15       7.55       6.03
O       0.57       6.66       4.80
H       3.33       4.11       8.90
H       0.46       4.58       4.00
H       1.36       0.75       6.44
H      -0.23       2.54       3.27
H       0.22       0.63       4.50
H       2.91       6.02       7.70
C       2.66       1.62       8.53
C       2.39       2.84       7.68
C       1.38       3.96       5.73
C       1.67       2.77       6.46
C       2.84       4.06       8.11
C       0.65       3.83       4.51
C       1.20       1.53       5.96
C       0.24       2.61       4.07
C       0.51       1.46       4.81
C       2.57       5.22       7.39
C       1.83       5.22       6.24
C       1.49       6.56       5.63
