20

Zn      -0.25       9.21       5.42
Zn      -2.59      10.47       8.10
C       0.00       9.16       2.82
C       2.13       7.37       5.29
C       0.98       6.83       7.01
C      -0.16      12.29       8.23
C       0.99      11.75       6.51
C      -2.84      10.52      10.70
C      -4.97      12.31       8.23
C      -3.82      12.85       6.51
C      -2.68       7.39       5.29
C      -3.83       7.93       7.01
N       1.04       7.74       6.01
N      -0.74      11.21       7.70
N       0.00      10.86       6.60
N      -3.88      11.94       7.51
N      -2.10       8.47       5.81
N      -2.84       8.82       6.92
O       0.29      10.05       3.71
O      -3.13       9.63       9.80
