20

Zn       2.22       4.29       8.10
Zn       4.56       5.55       5.42
C       2.13       7.37       5.29
C       0.98       6.83       7.01
C       1.96       4.24      10.70
C      -0.16       2.45       8.23
C       0.99       1.91       6.51
C       4.64       2.47       8.23
C       5.80       3.01       6.51
C       4.81       5.60       2.82
C       6.94       7.39       5.29
C       5.78       7.93       7.01
N       2.71       6.29       5.81
N       1.97       5.94       6.92
N       0.92       2.82       7.51
N       4.06       3.55       7.70
N       4.81       3.90       6.60
N       5.85       7.02       6.01
O       1.67       5.13       9.80
O       5.10       4.71       3.71
