27

Ca       8.44      14.69       4.11
Ca      12.08      14.01       3.46
Ca       6.09      15.28       1.80
Ca       2.84      15.24       2.31
O      11.75      15.79       4.71
O       9.61      16.38       5.13
O       2.25      16.18       0.22
O       4.38      15.52       0.37
O       6.66      13.37       3.17
O       4.50      13.67       2.68
O      11.51      12.25       4.77
O       9.40      12.94       5.20
O      10.15      14.29       2.34
O       8.33      15.41       1.70
O       6.53      16.17       3.94
O       4.45      16.62       3.27
O      13.94      14.25       2.19
O       1.09      13.91       2.70
C      10.86      16.64       5.08
C       3.37      15.96      -0.34
C       5.43      13.00       3.30
C      10.38      12.12       5.35
C       9.46      14.85       1.38
H      13.90      14.66       1.31
H      15.10      14.08       2.43
H       1.23      12.95       2.63
C       5.42      16.82       4.11
