27

Ca      -0.20      -5.24      13.45
O      -1.37      -6.93      12.43
Ca       2.15      -5.83      15.75
O       3.86      -6.07      17.19
Ca      -3.84      -4.56      14.10
O       1.58      -3.92      14.39
O       3.75      -4.22      14.88
Ca       5.40      -5.79      15.25
O      -3.27      -2.80      12.79
O      -1.16      -3.49      12.36
C      -2.62      -7.19      12.48
O      -1.90      -4.84      15.22
O      -0.08      -5.96      15.86
O       1.71      -6.72      13.62
O       3.80      -7.17      14.29
O      -5.70      -4.80      15.37
O       7.16      -4.46      14.86
C       4.87      -6.51      17.89
O       6.00      -6.73      17.34
C       2.82      -3.55      14.26
C      -2.13      -2.67      12.20
C      -1.22      -5.40      16.18
C       2.82      -7.37      13.45
H      -5.66      -5.21      16.25
H      -6.85      -4.63      15.12
H       7.02      -3.50      14.93
O      -3.51      -6.34      12.85
