23

O       8.83      18.03      21.05
C       5.51      19.08      23.58
O       8.72      19.57      19.37
C       9.35      18.75      20.13
Zn       4.80      17.28      18.86
O       4.69      21.70      20.59
Zn       6.89      17.67      21.33
O       6.37      21.60      19.05
Zn       4.41      19.76      20.95
Zn       6.83      19.70      18.91
C       5.61      22.22      19.87
O       5.70      18.57      20.04
C       2.16      18.38      19.53
O       4.63      19.71      22.91
O       6.36      18.24      23.13
C       6.21      15.03      20.23
O       2.84      17.50      18.91
O       2.61      19.24      20.38
O       6.84      15.71      21.11
O       5.37      15.48      19.38
C       5.88      18.48      16.39
O       5.16      17.57      16.91
O       6.70      19.24      17.02
