23

O       4.04       7.72       8.18
C       7.36       6.66      10.71
Zn       8.07       8.46       5.98
O       4.15       6.17       6.50
Zn       5.98       8.07       8.46
Zn       8.46       5.98       8.07
C       3.52       6.99       7.26
O       8.18       4.04       7.72
Zn       6.04       6.04       6.04
O       6.50       4.15       6.17
O       7.17       7.17       7.17
C      10.71       7.36       6.66
C       7.26       3.52       6.99
O       8.24       6.03      10.03
O       6.51       7.51      10.26
C       6.66      10.71       7.36
O      10.03       8.24       6.03
O      10.26       6.51       7.51
O       6.03      10.03       8.24
O       7.51      10.26       6.51
C       6.99       7.26       3.52
O       7.72       8.18       4.04
O       6.17       6.50       4.15
