23

Zn       8.07       4.41      18.86
O       6.51       5.37      23.13
Zn       5.98       4.80      21.33
C       6.99       5.61      16.39
O      10.03       4.63      18.91
Zn       8.46       6.89      20.95
O      10.26       6.36      20.38
O       6.03       2.84      21.11
O       7.51       2.61      19.38
C      10.71       5.51      19.53
Zn       6.04       6.83      18.91
C       3.52       5.88      20.13
O       7.17       5.70      20.04
C       6.66       2.16      20.23
O       7.72       4.69      16.91
O       6.17       6.37      17.02
O       4.04       5.16      21.05
C       7.26       9.35      19.87
O       4.15       6.70      19.37
O       8.18       8.83      20.59
O       6.50       8.72      19.05
O       8.24       6.84      22.91
C       7.36       6.21      23.58
