23

Zn       4.80      21.33       5.98
O       2.84      21.11       6.03
O       2.61      19.38       7.51
C       5.88      20.13       3.52
C       2.16      20.23       6.66
Zn       6.89      20.95       8.46
Zn       4.41      18.86       8.07
Zn       6.83      18.91       6.04
O       6.84      22.91       8.24
O       5.37      23.13       6.51
O       5.70      20.04       7.17
C       9.35      19.87       7.26
C       6.21      23.58       7.36
O       5.16      21.05       4.04
O       6.70      19.37       4.15
C       5.61      16.39       6.99
O       8.83      20.59       8.18
O       8.72      19.05       6.50
O       4.69      16.91       7.72
O       6.37      17.02       6.17
C       5.51      19.53      10.71
O       4.63      18.91      10.03
O       6.36      20.38      10.26
