31

H       5.77       0.89       0.84
H       5.03       3.05       1.79
H       6.71       4.72       2.58
H       8.82       4.88       5.01
H       8.65       9.14       4.42
H       9.22       6.52       1.05
C       8.30       0.01       0.53
C       7.88       1.32       1.08
C       6.50       1.61       1.18
C       6.09       2.83       1.71
C       7.03       3.77       2.15
C       8.39       3.49       2.05
C       8.83       2.27       1.50
C       9.07       5.59       2.99
C       8.85       5.74       4.35
C       8.66       7.03       4.87
C       8.74       8.13       4.01
C       8.93       7.96       2.64
C       9.07       6.67       2.11
C       8.34       7.26       6.32
C       9.04       9.18       1.76
C      10.32       2.01       1.49
O       9.57      -0.16       0.21
O       7.49      -0.94       0.33
O       9.40       4.32       2.49
O       8.27       6.21       7.06
O       8.14       8.45       6.70
O       9.50      10.24       2.29
O       8.69       9.06       0.54
O      10.80       1.34       2.44
O      11.00       2.50       0.51
