13

Cd       5.96      -0.09      12.12
C       7.18      -0.28       9.06
C       8.40      -1.50      10.42
N       7.35       0.47      13.87
O       4.40       0.62      10.49
O       5.56       2.25      11.49
O       4.33      -0.80      13.72
C       8.36       1.35      13.84
O       5.56      -2.41      12.77
C       7.17       0.09      15.19
C       4.71       1.86      10.63
C       4.68      -2.03      13.60
N       7.37      -0.64      10.38
