14

O      23.03       8.19      22.36
C      24.17       8.07      21.80
O      25.31       8.18      22.38
O      23.11       6.59      24.62
O      23.11       8.88      26.23
O      25.39       6.56      24.66
O      25.39       8.84      26.28
C      24.24       6.00      24.70
Cu      25.43       8.51      24.33
Cu      22.98       8.53      24.30
C      24.17      11.04      23.90
O      23.03      10.48      23.97
O      25.31      10.46      23.99
C      24.24       9.00      26.82
