14

C      21.65      27.67       6.57
O      17.27      28.78       7.56
O      18.38      29.49       9.42
C      19.08      26.19       8.67
C      19.91      30.79       6.61
O      18.61      26.36       7.49
Cu      20.08      28.86       8.64
Cu      18.88      28.12       6.65
O      19.74      27.04       9.35
O      20.58      27.50       5.88
O      21.71      28.18       7.74
C      17.32      29.29       8.73
O      19.24      29.92       5.94
O      20.35      30.63       7.81
