14

C      16.55      12.47      15.57
O      13.40      14.49      18.30
O      13.34      15.80      16.43
O      13.34      13.52      14.82
C      12.98      12.50      15.51
C      16.55      15.44      17.67
O      13.40      12.20      16.68
Cu      14.74      14.68      15.60
Cu      14.78      13.27      17.60
O      16.16      14.44      18.37
O      16.14      15.75      16.50
C      12.98      15.49      17.63
O      16.16      12.16      16.75
O      16.14      13.48      14.89
