14

O      36.35      26.09       1.88
O      34.07      26.11       1.86
C      35.20      26.21       2.44
O      33.99      27.72      -0.42
O      36.27      27.69      -0.37
Cu      33.95      25.77      -0.08
Cu      36.40      25.75      -0.06
C      35.14      28.28      -0.46
O      36.27      25.40      -1.99
O      33.99      25.44      -2.03
C      35.21      23.24       0.34
C      35.14      25.29      -2.58
O      36.35      23.81       0.27
O      34.07      23.83       0.25
