16

C       3.26       0.89      12.89
C       2.65       1.81      13.75
C       1.26       1.83      13.89
C       0.47       0.95      13.14
O       5.24      -0.28      12.37
O       5.43       1.85      13.11
C       4.75       0.82      12.78
C       2.46      -0.01      12.15
H       3.27       2.51      14.31
H       2.96      -0.72      11.49
C       1.08       0.04      12.26
H       0.78       2.52      14.57
C      -1.03       0.96      13.28
H       0.44      -0.63      11.68
O      -1.66       0.16      12.51
O      -1.56       1.75      14.13
