16

H       4.65       1.48      17.24
C       4.31       1.96      18.16
C       3.97       3.32      18.15
H       3.20       4.97      19.30
C       4.18       1.22      19.32
C       3.48       3.92      19.32
C       4.14       4.13      16.90
C       3.38       3.18      20.50
O       5.01       3.77      16.04
O       3.38       5.14      16.78
H       4.41       0.16      19.35
C       3.74       1.83      20.51
C       3.69       1.02      21.77
H       3.02       3.64      21.42
O       3.36       1.64      22.84
O       3.99      -0.21      21.70
