960

H       7.01      18.67      48.00
H       8.95      17.26      45.18
H       7.78      14.69      45.65
H       8.23      13.57      46.76
H       3.70      17.16      46.40
H       4.87      16.76      47.46
H       4.97      18.16      41.66
H       6.56      18.20      41.25
H       8.18      14.84      51.60
H       7.88      16.39      52.02
H       8.97      18.90      42.70
H       9.20      13.54      49.61
H       6.24      18.69      50.61
H       3.64      18.84      43.85
H      15.60      23.04      21.61
H      13.67      24.46      18.79
H      14.84      27.03      19.26
H      14.39      28.14      20.38
H      18.92      24.56      20.00
H      17.74      24.96      21.06
H      17.65      23.55      15.27
H      16.06      23.51      14.86
H      14.44      26.87      25.21
H      14.74      25.32      25.63
H      13.64      22.81      16.31
H      13.42      28.17      23.21
H      16.37      23.00      24.21
H      18.97      22.87      17.48
H      35.37      38.43       8.44
H      36.80      40.37       5.62
H      39.35      39.20       6.09
H      40.47      39.64       7.20
H      36.88      35.12       6.83
H      37.29      36.29       7.88
H      35.76      36.39       2.13
H      35.74      37.98       1.71
H      39.21      39.58      12.04
H      37.65      39.28      12.46
H      35.13      40.41       3.16
H      40.50      40.61      10.04
H      35.35      37.65      11.05
H      35.05      35.12       4.48
H      30.99       3.29      34.83
H      29.56       1.35      32.00
H      27.01       2.52      32.47
H      25.89       2.08      33.58
H      29.49       6.60      33.20
H      29.07       5.43      34.26
H      30.59       5.32      28.50
H      30.60       3.73      28.09
H      27.15       2.14      38.42
H      28.71       2.44      38.84
H      31.22       1.29      29.55
H      25.85       1.11      36.43
H      31.01       4.07      37.44
H      31.31       6.59      30.83
H      14.90      18.51      31.99
H      13.49      16.57      34.80
H      15.40      14.43      34.26
H      15.01      13.26      33.19
H      18.59      17.78      33.58
H      17.48      17.33      32.46
H      17.31      17.74      38.41
H      15.75      17.44      38.83
H      14.01      14.53      28.46
H      13.96      16.12      28.05
H      13.45      15.80      37.41
H      13.33      13.20      30.67
H      13.27      18.55      29.52
H      18.61      18.76      36.41
H       7.71      23.21       5.60
H       9.12      25.15       8.42
H       7.22      27.29       7.88
H       7.62      28.46       6.82
H       4.03      23.93       7.19
H       5.14      24.37       6.08
H       5.30      23.98      12.03
H       6.86      24.28      12.44
H       8.60      27.20       2.08
H       8.64      25.61       1.67
H       9.16      25.91      11.03
H       9.28      28.52       4.27
H       9.35      23.20       3.11
H       4.00      22.95      10.03
H      30.84      39.09      18.83
H      28.88      40.52      21.62
H      26.76      38.59      21.09
H      25.59      38.99      20.03
H      30.18      35.44      20.45
H      29.71      36.53      19.32
H      30.04      36.75      25.28
H      29.72      38.31      25.67
H      26.86      39.98      15.29
H      28.45      40.03      14.89
H      28.12      40.62      24.21
H      25.54      40.66      17.48
H      30.87      40.73      16.35
H      31.13      35.51      23.40
H      35.53       2.61      45.19
H      37.49       1.18      47.99
H      39.61       3.12      47.46
H      40.78       2.73      46.40
H      36.19       6.27      46.81
H      36.66       5.18      45.69
H      36.29       4.95      51.64
H      36.61       3.40      52.04
H      39.51       1.72      41.67
H      37.92       1.67      41.26
H      38.23       1.09      50.58
H      40.83       1.04      43.87
H      35.51       0.97      42.71
H      35.18       6.18      49.72
H      37.50      23.05       5.61
H      35.55      24.47       8.44
H      36.72      27.03       7.96
H      36.27      28.14       6.85
H      40.80      24.55       7.22
H      39.63      24.97       6.17
H      39.53      23.43      11.92
H      37.94      23.42      12.34
H      36.32      26.88       2.01
H      36.62      25.32       1.59
H      35.50      22.81      10.89
H      35.29      28.17       4.01
H      38.27      23.03       2.99
H      40.80      22.72       9.58
H      28.86      18.67      32.00
H      30.81      17.24      34.82
H      29.63      14.69      34.35
H      30.08      13.57      33.24
H      25.56      17.17      33.62
H      26.72      16.75      32.56
H      26.84      18.27      38.32
H      28.43      18.28      38.73
H      30.03      14.84      28.40
H      29.73      16.39      27.98
H      30.86      18.91      37.27
H      31.06      13.54      30.40
H      28.09      18.70      29.39
H      25.57      19.00      35.99
H       9.10       3.31      45.18
H       7.66       1.34      47.99
H       5.11       2.47      47.49
H       4.02       2.00      46.37
H       7.56       6.59      46.78
H       7.14       5.42      45.72
H       8.69       5.32      51.47
H       8.71       3.73      51.90
H       5.32       2.14      41.53
H       6.88       2.46      41.13
H       9.33       1.30      50.45
H       4.09       1.04      43.41
H       9.19       4.06      42.59
H       9.40       6.59      49.12
H      13.51      38.40      18.80
H      14.96      40.37      21.60
H      17.51      39.21      21.11
H      18.60      39.69      19.99
H      15.03      35.11      20.41
H      15.45      36.28      19.35
H      13.93      36.40      25.10
H      13.92      37.99      25.52
H      17.30      39.61      15.16
H      15.74      39.29      14.76
H      13.29      40.42      24.05
H      18.51      40.72      17.10
H      13.44      37.65      16.20
H      13.21      35.13      22.77
H      29.55      23.20      21.61
H      30.98      25.16      18.82
H      29.04      27.28      19.35
H      29.43      28.45      20.41
H      25.90      23.85      19.99
H      26.98      24.33      21.11
H      27.21      23.99      15.16
H      28.77      24.31      14.76
H      30.44      27.18      25.14
H      30.49      25.59      25.55
H      31.09      25.91      16.23
H      31.13      28.50      22.93
H      31.18      23.17      24.08
H      25.98      22.89      17.03
H      36.81      18.50      48.00
H      35.38      16.54      45.20
H      37.31      14.42      45.73
H      36.91      13.25      46.79
H      40.47      17.84      46.39
H      39.38      17.36      47.50
H      39.15      17.77      41.56
H      37.59      17.44      41.16
H      35.92      14.52      51.53
H      35.88      16.11      51.94
H      35.29      15.81      42.61
H      35.23      13.20      49.34
H      35.17      18.51      50.49
H      40.37      18.88      43.50
H      13.66       2.64      34.79
H      15.63       1.19      31.99
H      17.75       3.15      32.53
H      18.91       2.73      33.59
H      14.31       6.27      33.17
H      14.79       5.18      34.29
H      14.46       4.97      28.33
H      14.77       3.41      27.94
H      17.63       1.61      38.29
H      16.04       1.60      38.70
H      16.38       1.10      29.40
H      18.90       0.89      35.96
H      13.60       0.98      37.24
H      13.36       6.20      30.21
H       8.95      39.09       8.42
H       6.98      40.53       5.61
H       4.86      38.59       6.16
H       3.70      39.00       7.22
H       8.29      35.45       6.80
H       7.81      36.54       7.92
H       8.19      36.76       1.97
H       7.87      38.31       1.57
H       4.97      40.11      11.92
H       6.56      40.12      12.34
H       6.23      40.61       3.02
H       3.71      40.83       9.59
H       8.99      40.76      10.88
H       9.30      35.54       3.90
H      10.27      15.20      40.45
H      13.80      20.88      39.73
H      12.33      26.51      14.06
H       8.81      20.82      13.24
H      38.82      41.66       0.86
H      33.17       1.53       0.11
H      27.53       0.06      27.24
H      33.16      40.17      26.61
H      34.28      26.49      13.21
H      30.61      20.87      13.91
H      32.10      15.22      39.59
H      35.74      20.84      40.22
H       5.63       0.04      52.74
H      11.31      40.21       0.74
H      16.98      41.66      26.37
H      11.33       1.54      27.10
H      32.18      37.03      14.09
H      35.68      42.74      13.36
H      34.18       4.67      40.48
H      30.69      42.71      39.62
H      16.96      19.82      27.24
H      11.29      23.40      26.46
H       5.64      21.85       0.90
H      11.36      18.39       0.12
H      12.38       4.66      39.57
H       8.73      42.77      40.28
H      10.26      37.06      13.16
H      13.84      42.72      13.85
H      27.49      21.88      26.36
H      33.18      18.34      27.15
H      38.88      19.87      52.70
H      33.14      23.32       0.84
H       5.53      11.08      48.58
H      10.64       8.16      51.76
H      17.10      30.63      22.23
H      11.43      31.85      22.64
H      42.96      36.93       9.05
H       0.43      42.61       9.44
H      23.40       4.78      35.41
H      20.50      43.39      38.55
H      17.18      10.84      30.76
H      12.43       8.13      32.45
H       5.45      30.90       4.53
H      11.42      33.31       2.73
H      23.14      36.84      17.72
H      21.60      42.24      18.90
H      43.21       4.88      43.97
H       2.16       0.12      45.65
H      38.95      30.64       5.02
H      33.80      33.52       1.86
H      27.39      11.07      31.37
H      33.07       9.87      31.00
H      27.29      30.89      22.84
H      32.05      33.57      21.17
H      39.06      10.80      49.08
H      33.07       8.42      50.88
H      21.08      15.08      35.48
H      22.30      20.76      35.75
H       1.53      26.61       9.02
H      42.40      21.48      12.19
H       1.25      15.01      44.08
H      43.45      20.40      45.30
H      21.34      26.72      17.57
H      24.04      21.97      19.27
C       7.42      16.75      47.24
C       7.31      17.72      48.26
C       7.51      17.41      49.62
C       7.84      16.07      49.99
C       7.97      15.07      48.96
C       7.78      15.41      47.58
C       6.98      17.11      45.92
C       5.59      17.24      45.58
C       5.23      17.59      44.24
C       6.23      17.78      43.23
C       7.61      17.64      43.58
C       7.96      17.33      44.92
C       8.66      17.96      42.71
C       3.89      17.88      43.95
C       8.27      13.75      49.30
C       7.19      18.41      50.55
C      15.20      24.97      20.85
C      15.31      23.99      21.87
C      15.10      24.30      23.23
C      14.78      25.64      23.60
C      14.65      26.64      22.57
C      14.84      26.30      21.19
C      15.64      24.60      19.53
C      17.02      24.47      19.19
C      17.38      24.13      17.85
C      16.38      23.93      16.85
C      15.00      24.08      17.20
C      14.66      24.38      18.53
C      13.96      23.75      16.32
C      18.72      23.83      17.56
C      14.35      27.96      22.92
C      15.42      23.29      24.16
C      37.29      38.84       7.68
C      36.32      38.72       8.70
C      36.63      38.93      10.06
C      37.97      39.24      10.43
C      38.97      39.38       9.40
C      38.63      39.19       8.02
C      36.92      38.40       6.36
C      36.77      37.02       6.03
C      36.39      36.65       4.70
C      36.20      37.66       3.69
C      36.38      39.04       4.03
C      36.71      39.38       5.36
C      36.06      40.08       3.16
C      36.02      35.33       4.43
C      40.29      39.68       9.74
C      35.63      38.60      10.99
C      29.07       2.89      34.06
C      30.04       3.00      35.08
C      29.73       2.80      36.45
C      28.38       2.48      36.81
C      27.39       2.34      35.78
C      27.73       2.53      34.40
C      29.43       3.32      32.74
C      29.59       4.70      32.41
C      29.97       5.06      31.07
C      30.15       4.05      30.07
C      29.97       2.67      30.41
C      29.65       2.34      31.74
C      30.29       1.63      29.54
C      30.34       6.38      30.81
C      26.06       2.04      36.12
C      30.73       3.12      37.37
C      15.05      16.54      32.72
C      14.83      17.52      31.73
C      14.53      17.18      30.39
C      14.39      15.80      30.04
C      14.58      14.79      31.04
C      14.92      15.15      32.39
C      15.41      16.98      34.05
C      16.75      17.33      34.39
C      17.08      17.53      35.77
C      16.08      17.39      36.80
C      14.74      17.07      36.43
C      14.44      16.87      35.06
C      13.74      16.75      37.35
C      18.41      17.84      36.12
C      14.29      13.45      30.75
C      14.21      18.22      29.52
C       7.56      25.18       6.34
C       7.78      24.20       5.34
C       8.09      24.55       4.01
C       8.22      25.93       3.66
C       8.03      26.93       4.66
C       7.69      26.56       6.01
C       7.20      24.74       7.66
C       5.87      24.38       8.01
C       5.53      24.18       9.39
C       6.53      24.32      10.41
C       7.87      24.64      10.05
C       8.18      24.85       8.68
C       8.88      24.96      10.97
C       4.21      23.88       9.73
C       8.32      28.27       4.37
C       8.41      23.51       3.13
C      28.87      38.94      19.56
C      29.85      39.16      18.56
C      29.51      39.46      17.23
C      28.13      39.60      16.87
C      27.12      39.41      17.88
C      27.48      39.07      19.22
C      29.30      38.60      20.89
C      29.68      37.27      21.25
C      29.88      36.95      22.63
C      29.72      37.96      23.65
C      29.39      39.30      23.26
C      29.18      39.58      21.89
C      29.07      40.31      24.17
C      30.24      35.65      23.00
C      25.78      39.70      17.58
C      30.55      39.79      16.35
C      37.50       2.76      45.93
C      36.52       2.54      44.93
C      36.86       2.24      43.59
C      38.24       2.10      43.24
C      39.25       2.29      44.25
C      38.88       2.63      45.59
C      37.06       3.11      47.25
C      36.67       4.43      47.61
C      36.47       4.75      49.00
C      36.62       3.74      50.01
C      36.97       2.41      49.63
C      37.18       2.12      48.26
C      37.28       1.39      50.54
C      36.10       6.05      49.36
C      40.58       1.99      43.96
C      35.82       1.91      42.72
C      37.09      24.97       6.37
C      37.20      23.99       5.35
C      36.99      24.30       3.99
C      36.66      25.65       3.62
C      36.53      26.64       4.65
C      36.72      26.30       6.03
C      37.52      24.60       7.69
C      38.90      24.44       8.02
C      39.27      24.06       9.36
C      38.26      23.88      10.36
C      36.88      24.06      10.02
C      36.54      24.38       8.69
C      35.84      23.74      10.90
C      40.59      23.69       9.62
C      36.22      27.96       4.31
C      37.31      23.30       3.06
C      29.27      16.75      32.76
C      29.16      17.72      31.74
C      29.37      17.41      30.37
C      29.69      16.07      30.01
C      29.82      15.07      31.04
C      29.63      15.41      32.42
C      28.84      17.12      34.08
C      27.46      17.27      34.41
C      27.10      17.65      35.75
C      28.11      17.84      36.75
C      29.48      17.66      36.41
C      29.82      17.33      35.08
C      30.53      17.97      37.28
C      25.78      18.03      36.01
C      30.13      13.75      30.70
C      29.04      18.42      29.45
C       7.18       2.88      45.92
C       8.16       3.00      44.91
C       7.87       2.79      43.54
C       6.53       2.46      43.16
C       5.53       2.30      44.18
C       5.85       2.49      45.56
C       7.53       3.31      47.25
C       7.68       4.69      47.58
C       8.06       5.06      48.91
C       8.25       4.05      49.92
C       8.07       2.67      49.58
C       7.74       2.33      48.24
C       8.39       1.63      50.45
C       8.44       6.38      49.17
C       4.22       1.94      43.82
C       8.89       3.12      42.63
C      15.44      38.83      19.54
C      14.46      38.71      18.53
C      14.75      38.92      17.16
C      16.08      39.26      16.79
C      17.09      39.42      17.80
C      16.77      39.21      19.19
C      15.09      38.39      20.87
C      14.93      37.01      21.20
C      14.55      36.65      22.54
C      14.37      37.66      23.54
C      14.55      39.04      23.20
C      14.87      39.38      21.86
C      14.23      40.09      24.07
C      14.18      35.33      22.80
C      18.39      39.80      17.45
C      13.73      38.60      16.25
C      29.40      25.17      20.88
C      29.62      24.19      21.87
C      29.92      24.53      23.21
C      30.06      25.91      23.56
C      29.87      26.92      22.56
C      29.52      26.56      21.22
C      29.06      24.74      19.55
C      27.73      24.35      19.19
C      27.41      24.15      17.80
C      28.42      24.31      16.79
C      29.76      24.65      17.18
C      30.04      24.86      18.55
C      30.78      24.96      16.27
C      26.11      23.79      17.44
C      30.17      28.26      22.85
C      30.24      23.49      24.08
C      36.96      16.53      47.27
C      36.74      17.51      48.26
C      36.44      17.17      49.60
C      36.30      15.79      49.95
C      36.49      14.78      48.95
C      36.83      15.15      47.60
C      37.30      16.97      45.94
C      38.63      17.36      45.58
C      38.95      17.57      44.20
C      37.94      17.42      43.19
C      36.60      17.07      43.57
C      36.32      16.85      44.93
C      35.59      16.75      42.65
C      40.24      17.96      43.84
C      36.19      13.44      49.24
C      36.11      18.21      50.48
C      15.63       2.77      34.05
C      14.65       2.55      35.05
C      14.99       2.23      36.38
C      16.36       2.05      36.72
C      17.37       2.24      35.72
C      17.01       2.62      34.38
C      15.20       3.12      32.72
C      14.81       4.44      32.37
C      14.62       4.76      30.98
C      14.78       3.76      29.96
C      15.11       2.42      30.35
C      15.32       2.13      31.72
C      15.44       1.40      29.44
C      14.25       6.06      30.62
C      18.69       1.86      35.98
C      13.94       1.91      37.25
C       6.98      38.96       7.68
C       7.96      39.18       8.68
C       7.62      39.50      10.01
C       6.24      39.68      10.35
C       5.23      39.49       9.35
C       5.60      39.11       8.01
C       7.41      38.61       6.35
C       7.80      37.28       6.00
C       8.01      36.97       4.62
C       7.85      37.97       3.60
C       7.51      39.31       3.98
C       7.29      39.59       5.34
C       7.18      40.32       3.06
C       8.39      35.67       4.26
C       3.91      39.86       9.61
C       8.66      39.82      10.88
C      12.20      17.51      39.04
C      10.65      16.13      40.28
C      10.17      17.25      40.99
C      11.71      18.64      39.75
C      12.20      19.92      39.54
C      10.42      24.20      12.66
C      11.96      25.58      13.89
C      12.44      24.46      14.61
C      10.90      23.07      13.37
C      10.42      21.79      13.16
C      36.52      43.61      52.24
C      37.89      42.05       0.70
C      36.77      41.58       1.43
C      35.39      43.15       0.21
C      34.12      43.66       0.02
C      29.83      41.84      25.87
C      28.47      43.42      27.08
C      29.58       0.13      27.82
C      30.96      42.30      26.60
C      32.23      41.79      26.41
C      32.30      24.20      14.57
C      33.88      25.56      13.36
C      34.34      24.45      12.62
C      32.76      23.08      13.83
C      32.24      21.80      14.01
C      34.06      17.51      40.96
C      32.49      16.15      39.74
C      32.03      17.26      39.01
C      33.60      18.64      40.22
C      34.11      19.91      40.42
C       7.94      41.85       1.37
C       6.57      43.41       0.14
C       7.68       0.13      52.17
C       9.07      42.32       0.64
C      10.35      41.83       0.85
C      14.68      43.62      27.74
C      16.05      42.05      26.53
C      14.94      41.59      25.79
C      13.55      43.16      27.01
C      12.28      43.66      27.19
C      34.08      39.35      12.68
C      32.55      37.97      13.92
C      32.06      39.09      14.63
C      33.60      40.48      13.39
C      34.08      41.76      13.17
C      32.27       2.36      39.06
C      33.81       3.74      40.30
C      34.30       2.62      41.01
C      32.76       1.23      39.76
C      32.30      43.69      39.54
C      14.66      21.76      25.85
C      16.03      20.20      27.07
C      14.92      19.73      27.80
C      13.53      21.29      26.57
C      12.25      21.78      26.37
C       7.95      19.96      52.23
C       6.58      21.49       0.72
C       7.69      21.99       1.43
C       9.09      20.45       0.17
C      10.37      19.98      52.70
C      10.41       2.36      40.93
C      11.99       3.73      39.72
C      12.45       2.62      38.98
C      10.87       1.23      40.19
C      10.36      43.71      40.38
C      12.20      39.36      14.55
C      10.64      37.99      13.33
C      10.17      39.11      12.60
C      11.73      40.49      13.83
C      12.22      41.77      14.04
C      29.80      19.96      27.76
C      28.42      21.50      26.53
C      29.54      21.98      25.81
C      30.93      20.43      27.04
C      32.21      19.95      27.25
C      36.56      21.76       1.38
C      37.94      20.23       0.12
C      36.82      19.73      52.18
C      35.42      21.26       0.68
C      34.14      21.72       0.91
C       7.65       8.67      49.36
C       6.40      10.67      48.91
C       7.50      11.48      49.27
C       8.76       9.47      49.74
C       9.96       8.96      50.20
C      14.96      33.04      22.99
C      16.22      31.04      22.55
C      15.12      30.23      22.89
C      13.85      32.23      23.35
C      12.64      32.74      23.78
C       1.62      39.08       9.80
C      43.37      37.81       9.37
C      42.56      38.92       9.71
C       0.81      40.19      10.16
C       1.32      41.40      10.59
C      20.98       2.65      36.17
C      22.99       3.90      35.74
C      23.80       2.81      36.09
C      21.79       1.54      36.55
C      21.28       0.34      36.99
C      14.94       8.40      30.67
C      16.25      10.42      30.69
C      15.09      11.21      30.62
C      13.76       9.20      30.60
C      12.48       8.68      30.65
C       7.69      33.33       4.29
C       6.37      31.32       4.40
C       7.52      30.51       4.26
C       8.85      32.52       4.14
C      10.12      33.03       4.06
C      20.72      39.09      17.47
C      22.73      37.76      17.59
C      23.54      38.91      17.46
C      21.53      40.25      17.34
C      21.03      41.53      17.26
C       1.89       2.63      43.87
C      43.63       3.95      43.90
C      42.83       2.79      43.82
C       1.09       1.46      43.80
C       1.60       0.17      43.84
C      36.81      33.05       4.25
C      38.07      31.05       4.69
C      36.98      30.24       4.34
C      35.70      32.23       3.88
C      34.50      32.74       3.42
C      29.54       8.67      30.62
C      28.27      10.67      31.05
C      29.37      11.48      30.72
C      30.66       9.49      30.27
C      31.87       8.99      29.85
C      29.54      33.31      22.94
C      28.22      31.30      22.92
C      29.37      30.50      22.99
C      30.71      32.51      23.02
C      32.00      33.02      22.97
C      36.81       8.38      49.33
C      38.13      10.39      49.21
C      36.99      11.20      49.36
C      35.65       9.20      49.47
C      34.37       8.69      49.56
C      23.49      17.24      36.19
C      21.49      15.97      35.78
C      20.67      17.07      36.10
C      22.67      18.36      36.53
C      23.17      19.58      36.94
C      42.88      24.48       9.80
C       1.13      25.74       9.35
C       1.94      24.64       9.71
C      43.69      23.37      10.18
C      43.18      22.17      10.63
C      42.58      17.25      43.85
C       0.84      15.93      43.96
C       1.65      17.08      43.83
C      43.39      18.42      43.72
C      42.88      19.70      43.65
C      23.78      24.47      17.48
C      21.76      25.79      17.50
C      20.96      24.64      17.43
C      22.98      23.30      17.41
C      23.49      22.02      17.46
N       7.98      15.74      51.31
N       5.89      18.09      41.95
N       7.92      14.47      46.59
N       4.65      17.05      46.56
N      14.64      25.97      24.92
N      16.72      23.62      15.56
N      14.70      27.24      20.20
N      17.97      24.67      20.16
N      38.31      39.38      11.75
N      35.85      37.32       2.41
N      39.56      39.33       7.02
N      36.98      36.07       6.99
N      28.05       2.34      38.13
N      30.49       4.39      28.79
N      26.79       2.39      33.41
N      29.38       5.65      33.37
N      14.07      15.46      28.75
N      16.41      17.54      38.12
N      15.12      14.20      33.36
N      17.69      17.47      33.40
N       8.54      26.27       2.37
N       6.20      24.18      11.73
N       7.50      27.51       6.98
N       4.93      24.24       7.01
N      27.79      39.92      15.58
N      29.85      37.65      24.97
N      26.53      38.87      20.19
N      29.85      36.33      20.26
N      38.58       1.78      41.96
N      36.48       4.05      51.34
N      39.83       2.83      46.56
N      36.52       5.37      46.63
N      36.52      25.98       2.30
N      38.60      23.53      11.64
N      36.58      27.24       7.03
N      39.86      24.65       7.06
N      29.83      15.74      28.69
N      27.77      18.18      38.03
N      29.77      14.48      33.41
N      26.51      17.07      33.45
N       6.22       2.33      41.84
N       8.60       4.40      51.19
N       4.91       2.33      46.55
N       7.46       5.65      46.61
N      16.40      39.41      15.46
N      14.02      37.32      24.82
N      17.71      39.36      20.17
N      15.14      36.06      20.24
N      30.38      26.25      24.85
N      28.11      24.18      15.46
N      29.32      27.51      20.25
N      26.79      24.19      20.17
N      35.98      15.45      51.24
N      38.25      17.57      41.86
N      37.02      14.20      46.63
N      39.57      17.51      46.57
N      16.71       1.71      38.00
N      14.65       4.07      28.64
N      17.97       2.83      33.42
N      14.65       5.38      33.35
N       5.90      40.02      11.63
N       7.99      37.66       2.27
N       4.64      38.90       7.05
N       7.96      36.34       6.98
N      11.63      16.30      39.35
N      10.73      18.45      40.69
N      13.16      17.62      38.11
N       9.19      17.10      41.90
N      10.98      25.41      12.96
N      11.88      23.26      14.30
N       9.45      24.09      11.73
N      13.42      24.61      15.52
N      37.72      43.03      52.53
N      35.58      42.17       1.14
N      36.41       0.83      51.31
N      36.92      40.61       2.34
N      28.63      42.43      26.15
N      30.77      43.29      27.53
N      29.94      40.87      24.94
N      29.43       1.11      28.72
N      32.90      25.40      14.29
N      33.75      23.26      12.90
N      31.33      24.09      15.49
N      35.32      24.60      11.71
N      33.47      16.31      40.67
N      32.61      18.46      39.30
N      35.03      17.62      41.88
N      31.05      17.12      38.10
N       6.74      42.43       1.07
N       8.88      43.30      52.47
N       8.05      40.88       2.30
N       7.53       1.10      51.26
N      15.88      43.03      27.45
N      13.74      42.17      26.08
N      14.57       0.84      28.66
N      15.08      40.61      24.88
N      33.52      38.15      12.99
N      32.62      40.29      14.32
N      35.05      39.47      11.75
N      31.08      38.93      15.54
N      32.83       3.57      39.37
N      33.75       1.42      40.69
N      31.31       2.24      38.12
N      35.28       2.77      41.92
N      15.86      21.18      26.14
N      13.72      20.30      27.50
N      14.55      22.72      24.92
N      15.06      18.75      28.71
N       6.75      20.51      52.55
N       8.90      21.44       1.10
N       8.07      18.99      51.30
N       7.55      22.96       2.34
N      11.00       3.56      40.65
N      11.86       1.42      39.27
N       9.44       2.25      41.86
N      13.42       2.76      38.07
N      11.62      38.16      14.26
N      10.74      40.30      12.91
N      13.17      39.47      15.48
N       9.19      38.96      11.69
N      28.60      20.53      27.46
N      30.74      21.42      26.11
N      29.92      18.99      28.69
N      29.39      22.96      24.90
N      37.77      21.21       1.06
N      35.62      20.28      52.51
N      36.44      22.72       2.31
N      36.97      18.76      51.27
N       6.53       9.32      48.97
N       8.63      10.83      49.67
N       7.57       7.33      49.26
N       7.42      12.80      49.12
N      16.09      32.39      22.61
N      13.98      30.88      23.27
N      15.04      34.38      22.88
N      15.20      28.91      22.74
N       0.97      37.94       9.42
N      43.20      40.06      10.09
N       2.96      39.00       9.69
N      41.24      38.83       9.56
N      21.64       3.78      35.79
N      23.15       1.67      36.48
N      19.65       2.72      36.07
N      25.12       2.89      35.94
N      16.12       9.06      30.72
N      13.90      10.56      30.59
N      15.02       7.07      30.83
N      15.19      12.54      30.74
N       6.50      32.67       4.42
N       8.71      31.16       4.15
N       7.61      34.66       4.44
N       7.42      29.19       4.38
N      21.38      37.90      17.60
N      22.89      40.10      17.35
N      19.39      39.02      17.62
N      24.86      38.80      17.59
N       1.23       3.82      43.93
N      43.48       1.60      43.79
N       3.22       2.71      44.03
N      41.50       2.90      43.94
N      37.94      32.40       4.64
N      35.84      30.88       3.95
N      36.88      34.38       4.35
N      37.07      28.91       4.49
N      28.41       9.32      31.00
N      30.51      10.84      30.34
N      29.47       7.34      30.73
N      29.28      12.80      30.87
N      28.35      32.66      22.88
N      30.57      31.15      23.02
N      29.46      34.64      22.78
N      29.26      29.17      22.87
N      37.99       9.04      49.19
N      35.79      10.55      49.47
N      36.88       7.06      49.17
N      37.09      12.52      49.23
N      22.84      16.10      35.83
N      21.31      18.22      36.46
N      24.82      17.17      36.09
N      19.35      16.98      35.95
N      43.53      25.61       9.41
N       1.30      23.51      10.10
N      41.54      24.55       9.70
N       3.26      24.73       9.55
N      43.24      16.07      43.98
N       1.00      18.27      43.73
N      41.25      17.17      44.01
N       2.97      16.97      43.95
N      23.12      25.66      17.54
N      21.62      23.44      17.40
N      25.10      24.56      17.65
N      19.64      24.74      17.55
O      11.43      20.86      39.68
O      13.40      20.09      39.75
O      11.18      20.84      13.32
O       9.20      21.61      13.28
O      33.16      42.92       0.19
O      33.96       1.13       0.14
O      33.19      42.54      26.57
O      32.38      40.58      26.62
O      32.98      20.84      13.83
O      31.02      21.66      13.89
O      33.36      20.87      40.26
O      35.32      20.06      40.21
O      11.30      42.59       0.68
O      10.52      40.61       0.71
O      11.32      42.92      27.02
O      12.12       1.13      27.07
O      33.30      42.70      13.32
O      35.28      41.94      13.38
O      33.06      42.75      39.69
O      31.08      43.50      39.66
O      11.30      21.03      26.54
O      12.08      23.00      26.49
O      11.31      20.77       0.07
O      10.56      18.78       0.15
O      11.10      42.75      40.20
O       9.14      43.56      40.26
O      11.46      42.72      13.89
O      13.43      41.93      13.84
O      33.16      20.71      27.09
O      32.39      18.73      27.12
O      33.20      20.95       0.76
O      33.94      22.94       0.79
O      11.00       9.48      49.81
O       9.93       8.44      51.32
O      12.62      33.23      24.90
O      11.55      32.27      23.42
O       1.80      41.42      11.71
O       0.84      42.48      10.22
O      21.80      43.06      36.59
O      20.77       0.36      38.12
O      11.67       9.09      29.83
O      11.98       8.34      31.73
O      10.88      32.76       4.99
O      10.58      33.11       2.92
O      20.86      41.94      16.12
O      21.37      42.40      18.06
O       1.19      43.12      43.02
O       1.94      43.41      44.92
O      33.47      32.21       3.82
O      34.53      33.25       2.30
O      31.90       8.51      28.72
O      32.95       9.46      30.23
O      32.80      32.60      23.80
O      32.51      33.35      21.90
O      33.62       8.96      48.63
O      33.91       8.62      50.70
O      23.64      19.63      38.06
O      22.70      20.65      36.53
O      43.70      21.14      10.23
O      42.67      22.20      11.75
O      42.71      20.11      42.51
O      43.23      20.57      44.46
O      23.08      21.21      16.64
O      23.83      21.51      18.54
