87

H      15.23       5.66       2.49
H      22.27      12.32       1.12
C      19.91       6.88       1.58
H      17.12       6.44       4.02
H      21.83      10.23       0.04
C      11.83      11.20       1.27
H      15.80      12.86      -2.04
C      20.20      10.39       1.44
H      15.17      13.24       4.84
H      19.67      15.72       1.50
H      15.55       6.52       4.84
H      16.31       8.00       4.22
C      14.43      10.13       1.52
C      19.80      14.64       1.46
H      14.59      13.95       2.49
C      18.72      10.06       1.58
C      18.86      12.41       1.52
C      17.52       6.55       1.39
C      16.54      11.18       1.58
H      22.08      10.36       2.49
H      14.88      11.58      -1.24
H      19.89      11.29      -1.24
C      15.41       6.73       2.67
H      19.52      10.12       4.22
H      17.14       7.10      -1.24
H      21.15       8.89       2.73
C      15.42       7.03       0.12
H      16.57      13.73       0.18
C      17.94      11.25       1.59
H      21.08       5.07       1.50
H      16.07      11.85       4.22
H      17.72      14.25       1.71
C      15.68      13.10       0.12
C      21.09      14.12       1.27
C      20.53      10.51       4.01
C      22.24      15.03       1.06
H      14.43       7.49       0.18
H      16.24       8.62      -1.14
C      10.47      11.74       1.06
C      16.13       7.53      -1.14
C      15.89       9.91       1.59
C      20.08       5.50       1.46
C      20.17      11.90       1.39
C      17.69       5.18       1.25
C      12.02       9.82       1.46
C      16.20       7.28       1.44
C      21.27      12.73       1.25
C      19.20       3.19       1.06
C      15.43      13.25       2.67
C      14.21      11.52       1.39
H      14.32      11.93       4.02
H      19.02       9.76      -1.14
H      21.18      10.21       4.84
C      18.08       8.81       1.59
C      12.94      12.06       1.25
C      18.61       7.43       1.52
O      10.29      13.02       0.94
H      20.47      11.61       4.02
C      18.99       4.64       1.27
O       9.48      10.94       0.94
O      22.03      16.29       0.94
C      20.81       9.84       0.12
H      20.79       7.50       1.71
H      11.15       9.17       1.50
O      20.39       2.74       0.94
H      16.84       4.52       1.12
H      16.65      11.59      -1.14
C      16.14       6.93       4.01
C      20.02      10.21      -1.14
C      15.75      12.23      -1.14
O      18.19       2.40       0.94
H      20.91       8.75       0.17
C      13.31       9.29       1.58
O      23.43      14.55       0.94
C      15.24      12.52       4.01
C      18.69      13.80       1.58
C      16.65       8.73       1.58
H      14.83      13.79       0.04
H      13.40       8.22       1.71
C      15.51      12.30       1.44
H      15.56       7.25      -2.04
C      21.07       9.98       2.67
H      16.33      13.87       2.73
H      12.80      13.13       1.11
H      14.43       7.21       2.73
H      15.24       5.95       0.04
H      20.54       9.85      -2.04
