87

H       7.36      -7.57      21.85
H       7.71      -6.91      28.25
C      10.51      -2.34      25.39
H       4.02      -4.33      20.30
C       4.01      -7.35      25.93
H       9.29      -6.51      23.09
C       9.34      -6.74      22.02
C       7.66      -0.37      23.46
H       4.15      -9.50      23.30
H       9.98      -5.98      21.55
H       2.52      -3.19      25.59
H       6.14      -3.07      28.15
H       4.47      -3.42      27.15
H       5.31      -6.19      28.13
H       9.62      -1.53      21.78
H       8.49       0.84      26.13
H      10.09      -0.30      24.74
H       6.52      -1.03      29.47
H       5.76       0.42      22.76
H       5.67      -0.29      24.38
C       9.25      -2.33      21.16
C       4.15      -4.27      26.54
C       7.10      -4.85      22.90
H       5.19      -6.32      21.26
H       8.02      -5.17      18.78
H      10.24      -1.47      23.44
C       7.02      -3.32      25.29
H       8.01      -7.02      20.32
C       6.07      -5.67      27.53
H       7.00      -7.49      26.73
C       7.98      -0.02      26.56
H       5.76      -1.34      22.96
C       5.26      -7.65      23.43
C       9.64      -2.36      19.82
C       7.09      -2.29      26.35
C       7.95      -6.77      21.39
C       3.72      -8.47      25.13
C       4.96      -4.21      20.86
C       9.19      -3.36      18.95
C       4.37      -8.62      23.90
H       8.06      -6.07      26.72
C       6.86      -1.08      28.44
C       7.80      -3.60      22.98
C       4.91      -6.40      25.47
C       8.00      -4.37      20.78
C       9.83      -1.33      24.45
C       5.38      -5.18      26.22
H       9.84      -7.71      21.90
C       6.13      -0.40      23.39
C       7.51       0.04      27.88
C       6.38      -5.32      24.02
C       9.54      -3.31      17.51
H      10.30      -1.58      19.43
H       5.94      -5.81      19.77
H       8.07      -0.50      22.45
C       7.75      -2.84      24.15
C       7.28      -6.59      27.29
O       2.35     -10.39      24.77
H      10.28      -3.37      25.10
C       7.64       1.29      28.67
O       9.17      -4.27      16.72
H       4.04      -3.09      24.70
H       8.00       0.61      23.80
H       5.72      -7.81      22.46
O      10.17      -2.30      17.04
C       7.78      -1.18      25.83
O       8.28       2.30      28.18
H       3.47      -4.86      27.16
C       3.41      -3.76      25.30
O       7.08       1.37      29.82
H      10.17      -2.21      26.43
O       2.15      -9.34      26.73
C       6.33      -4.54      25.21
H       3.52      -7.23      26.90
C       8.37      -4.38      19.44
H       4.70      -3.94      21.89
C       7.17      -5.42      21.49
C       6.65      -2.23      27.68
H       5.51      -3.37      20.42
C       8.40      -3.34      21.66
C       8.28      -1.43      24.42
C       5.53      -6.51      24.21
H       6.39      -4.81      28.13
C       5.77      -5.51      20.81
C       2.71      -9.46      25.57
H      11.60      -2.21      25.38
H       3.08      -4.58      24.65
