87

C       1.17       6.40      20.86
H      -2.22      10.59      25.10
C      -3.79       6.48      27.88
C      -3.97       6.92      26.56
C       4.36       7.15      25.93
H       4.50       6.66      26.90
H      -4.53       6.62      23.80
C       3.09       7.46      25.47
C       6.84       7.07      25.57
H       2.87      10.16      21.85
H       0.16       6.46      20.42
C       1.88       7.75      20.81
H       2.47       5.43      27.16
H       2.07      10.45      20.32
H      -3.48       9.10      21.78
H      -3.88      11.15      25.38
H      -3.17       9.91      26.43
C      -4.94       5.97      28.67
C       1.10       8.92      21.49
H      -2.37       6.16      29.47
C      -1.56       7.29      26.35
H      -1.72       5.66      22.96
H       3.90       8.86      22.47
C      -2.90       7.88      24.42
C      -2.49       6.49      28.44
C      -1.42       8.13      24.15
H       0.73       5.58      27.15
C      -0.22       9.11      20.78
C      -2.72       5.51      23.39
C      -3.51       6.82      23.46
H      -4.97       6.93      26.13
C      -0.64       7.74      25.29
C      -1.39       6.88      27.68
H       2.13      10.14      28.25
C      -2.87       7.33      25.83
C       1.16      11.46      22.02
C       0.65       8.57      22.90
H       1.74       5.65      20.30
C       1.41       8.19      24.02
C      -2.78       9.53      19.82
H       6.15       8.34      23.30
H       0.66       5.05      24.70
H       0.47       9.53      18.78
C      -3.23      10.27      25.39
C       5.47       7.45      25.13
C      -0.78       8.55      22.98
C      -3.76       9.18      24.45
C      -1.90       9.92      17.51
H       0.99      11.30      23.09
C      -1.68       9.64      18.95
C       2.07       9.60      27.29
H       2.88       7.66      21.26
C       1.55       4.83      25.30
H       2.06       8.05      19.77
H      -0.42       6.85      28.15
C       5.28       8.09      23.90
H       2.98       9.80      26.73
H       2.71       7.69      28.13
H      -3.85       9.60      23.44
O      -3.09       9.96      17.04
O      -6.13       6.02      28.18
C      -1.31       8.95      21.66
H       1.75      12.38      21.90
H       0.18      11.63      21.55
O       7.82       7.23      24.77
H      -3.24       4.78      22.76
C       1.62       5.73      26.54
O      -0.89      10.07      16.72
O      -4.73       5.45      29.82
O       7.02       6.53      26.73
H      -2.59       5.06      24.38
C       1.89      10.26      21.39
C      -2.61       9.18      21.16
C       0.77       7.75      25.21
H       1.50       3.78      25.59
C       1.79       7.25      26.22
H      -4.78       8.89      24.74
C       1.87       8.09      27.53
C       2.87       8.05      24.21
H      -3.78       9.71      19.43
H       1.06       6.04      21.89
H       2.42       4.96      24.65
C       4.00       8.38      23.43
H       1.23      10.02      26.72
H      -3.60       7.24      22.45
C      -0.39       9.44      19.44
H       0.97       7.94      28.13
