24

H       0.94       0.94       4.29
H       0.80       1.92       6.53
H      -3.78       1.94       6.21
H      -4.05       2.49       3.17
H      -3.62       0.93       4.06
H      -5.59       3.94       3.92
H      -3.95       4.75       3.79
H      -5.29       5.48       4.74
C      -1.21       3.43       7.59
C      -2.08       2.43       4.02
C      -0.97       1.68       3.62
C       0.08       1.54       4.54
C       0.00       2.10       5.83
C      -1.13       2.83       6.24
C      -2.15       3.02       5.29
C      -3.61       2.69       5.41
C      -3.51       2.04       4.02
C      -0.91       1.05       2.28
C      -4.81       4.52       4.45
O      -0.09       3.77       8.16
O      -2.38       3.61       8.13
O      -2.03       0.74       1.70
O       0.26       0.90       1.73
O      -4.40       3.86       5.63
