28

H       6.08      -0.18      10.20
H       6.23      -3.36      13.68
H       6.23      -2.23      11.53
H       5.57       2.16      13.73
H       5.52       0.06      19.44
H       5.48       2.22      15.80
H       5.35       2.17      18.19
H       6.09      -3.33      16.09
C       5.74       2.34      11.13
C       6.09      -1.29      12.04
C       5.81       1.11      11.91
C       5.58       0.05      18.36
C       5.49       1.24      17.66
C       5.56       1.25      16.26
C       5.74       0.05      15.53
C       5.84      -1.17      16.26
C       5.81       0.02      14.10
C       6.00      -1.23      13.44
C       6.09      -2.41      14.18
C       6.01      -2.39      15.56
C       5.71       1.18      13.31
C       6.00      -0.12      11.28
C       5.76      -1.16      17.67
C       5.83      -2.39      18.46
O       6.86       2.92      10.86
O       4.56       2.77      10.80
O       4.71      -2.98      18.73
O       7.01      -2.83      18.78
