876

H       1.31       0.62      55.76
H       1.38       0.58      58.15
H      32.14      32.30      55.82
H      32.19      32.28      58.20
H      33.55      31.43      60.09
H      33.57      31.40      62.48
H       0.09       1.38      60.13
H       0.12       1.34      62.52
H       2.43      33.41      63.18
H       4.24      33.42      64.95
H       0.62      33.47      66.83
H      33.13      33.51       0.10
H      31.25      33.49      63.19
H      29.47      33.46      65.00
H      28.85      31.34      68.00
H      26.46      31.32      68.02
H      28.81       1.31      67.45
H      26.43       1.30      67.50
H      29.50      33.47       1.98
H      31.31      33.46       3.75
H       4.28      33.54       1.93
H       2.50      33.54       3.74
H      33.62       1.38       4.41
H      33.64       1.41       6.80
H       0.17      31.44       4.45
H       0.16      31.45       6.84
H       1.47      32.28       8.80
H       1.42      32.30      11.19
H      32.27       0.65      11.10
H      32.29       0.61       8.73
H       5.01      31.38      67.44
H       7.40      31.41      67.47
H       9.21       0.89       0.78
H      11.59       0.95       0.78
H      11.75      32.13      66.20
H       9.36      32.08      66.16
H       7.32       1.42      67.83
H       4.94       1.37      67.83
H      24.47       0.58      66.19
H      22.09       0.55      66.20
H      24.45      32.06       0.96
H      22.07      32.01       0.94
H       0.73      32.11      21.62
H       0.69      32.11      23.99
H      32.34       1.23      21.55
H      32.31       1.25      23.94
H      31.49      34.11      25.88
H      31.47      34.09      28.27
H       1.46      33.45      25.93
H       1.42      33.41      28.32
H      33.50      31.05      28.97
H      33.52      29.24      30.73
H      33.54      32.86      32.63
H      33.54       0.29      34.30
H      33.55       2.24      28.99
H      33.54       4.01      30.81
H      31.43       4.63      33.81
H      31.41       7.02      33.83
H       1.40       4.66      33.24
H       1.40       7.05      33.30
H      33.51       3.90      36.20
H      33.50       2.09      37.97
H      33.57      29.13      36.12
H      33.57      30.91      37.94
H       1.40      33.97      38.63
H       1.42      33.93      41.02
H      31.46      33.23      38.64
H      31.47      33.21      41.04
H      32.29      31.87      42.97
H      32.30      31.87      45.36
H       0.66       1.01      45.35
H       0.63       1.03      42.97
H      31.47      28.46      33.23
H      31.51      26.08      33.26
H       0.92      24.21      34.97
H       0.99      21.82      34.98
H      32.22      21.73      31.99
H      32.18      24.11      31.95
H       1.51      26.15      33.61
H       1.46      28.54      33.61
H       0.67       9.00      31.99
H       0.64      11.38      32.00
H      32.09       8.96      35.17
H      32.05      11.35      35.15
H      32.20       1.14      15.79
H       0.83      32.63      19.36
H      32.68       0.65      13.40
H       1.09       1.02      50.04
H      32.53      32.35      53.54
H       0.63       0.56      47.64
H      16.33      31.18      67.48
H      19.90       0.86      67.29
H      13.94      31.89      67.34
H      31.27      17.15      33.28
H       0.95      13.57      33.08
H      31.99      19.54      33.13
H      28.51      26.83      51.76
H      28.58      26.79      54.15
H      25.14      24.31      51.82
H      25.18      24.29      54.20
H      26.55      23.43      56.09
H      26.56      23.40      58.48
H      27.29      27.59      56.13
H      27.33      27.55      58.52
H      29.63      25.41      59.18
H      31.44      25.42      60.95
H      27.82      25.47      62.83
H      26.18      25.46      64.51
H      24.24      25.49      59.19
H      22.46      25.47      61.00
H      21.84      23.34      64.00
H      19.45      23.32      64.02
H      21.81      27.52      63.45
H      19.42      27.51      63.50
H      22.56      25.41      66.39
H      24.37      25.40      68.16
H      31.54      25.49      66.34
H      29.76      25.49      68.15
H      26.62      27.59       0.41
H      26.63      27.62       2.80
H      27.38      23.44       0.45
H      27.37      23.46       2.84
H      28.67      24.29       4.80
H      28.62      24.31       7.19
H      25.26      26.86       7.10
H      25.29      26.82       4.73
H      32.21      23.38      63.44
H       0.39      23.42      63.47
H       2.26      27.04      65.18
H       4.65      27.10      65.19
H       4.74      24.13      62.20
H       2.36      24.09      62.16
H       0.32      27.63      63.83
H      32.14      27.58      63.83
H      17.47      26.79      62.19
H      15.08      26.76      62.20
H      17.51      24.00      65.37
H      15.12      23.95      65.35
H      27.93      24.11      17.62
H      27.89      24.11      19.99
H      25.34      27.44      17.55
H      25.31      27.46      19.94
H      24.49      26.12      21.88
H      24.46      26.10      24.27
H      28.66      25.45      21.93
H      28.62      25.41      24.32
H      26.50      23.06      24.97
H      26.52      21.24      26.73
H      26.54      24.86      28.63
H      26.54      26.50      30.30
H      26.55      28.45      24.99
H      26.54      30.22      26.81
H      24.43      30.84      29.81
H      24.41      33.23      29.83
H      28.61      30.87      29.24
H      28.60      33.26      29.30
H      26.50      30.11      32.20
H      26.49      28.30      33.97
H      26.57      21.14      32.12
H      26.57      22.91      33.94
H      28.61      25.97      34.63
H      28.63      25.93      37.02
H      24.45      25.24      34.64
H      24.46      25.21      37.04
H      25.28      23.87      38.97
H      25.29      23.87      41.36
H      27.86      27.22      41.35
H      27.83      27.24      38.97
H      24.47      20.47      29.23
H      24.50      18.08      29.26
H      28.13      16.21      30.97
H      28.19      13.82      30.98
H      25.22      13.73      27.99
H      25.17      16.11      27.95
H      28.71      18.15      29.61
H      28.67      20.54      29.61
H      27.87       1.01      27.99
H      27.84       3.39      28.00
H      25.09       0.96      31.17
H      25.04       3.35      31.15
H      25.20      27.35      11.79
H      28.03      24.63      15.36
H      25.68      26.86       9.40
H      28.29      27.23      46.04
H      25.52      24.36      49.54
H      27.83      26.77      43.64
H       9.32      23.18      63.48
H      12.90      27.07      63.29
H       6.93      23.90      63.34
H      24.27       9.15      29.28
H      28.16       5.57      29.08
H      24.98      11.54      29.13
H      21.51      18.83      47.76
H      21.58      18.80      50.15
H      18.13      16.31      47.82
H      18.18      16.29      50.20
H      19.55      15.43      52.09
H      19.56      15.41      54.48
H      20.29      19.59      52.13
H      20.32      19.55      54.52
H      22.63      17.42      55.18
H      24.44      17.43      56.95
H      20.82      17.48      58.83
H      19.18      17.46      60.51
H      17.24      17.49      55.19
H      15.46      17.47      57.00
H      14.84      15.34      60.00
H      12.45      15.32      60.02
H      14.81      19.52      59.45
H      12.42      19.52      59.50
H      15.56      17.41      62.39
H      17.37      17.40      64.16
H      24.53      17.49      62.34
H      22.76      17.49      64.15
H      19.68      19.53      64.82
H      19.69      19.56      67.21
H      20.43      15.38      64.86
H      20.42      15.40      67.25
H      21.66      16.29       0.80
H      21.62      16.31       3.19
H      18.26      18.86       3.10
H      18.29      18.82       0.73
H      25.21      15.39      59.44
H      27.60      15.42      59.47
H      29.47      19.04      61.18
H      31.85      19.11      61.19
H      31.94      16.13      58.20
H      29.56      16.09      58.16
H      27.52      19.63      59.83
H      25.14      19.58      59.83
H      10.46      18.79      58.19
H       8.08      18.76      58.20
H      10.51      16.01      61.37
H       8.12      15.96      61.35
H      20.93      16.12      13.62
H      20.88      16.12      15.99
H      18.34      19.44      13.55
H      18.30      19.46      15.94
H      17.49      18.12      17.88
H      17.46      18.10      20.27
H      21.66      17.46      17.93
H      21.62      17.41      20.32
H      19.50      15.06      20.97
H      19.51      13.25      22.73
H      19.53      16.86      24.63
H      19.53      18.50      26.30
H      19.55      20.45      20.99
H      19.53      22.22      22.81
H      17.42      22.84      25.81
H      17.40      25.23      25.83
H      21.60      22.87      25.24
H      21.60      25.26      25.30
H      19.50      22.12      28.20
H      19.49      20.30      29.97
H      19.56      13.14      28.12
H      19.56      14.91      29.94
H      21.60      17.98      30.63
H      21.62      17.93      33.02
H      17.45      17.24      30.64
H      17.46      17.22      33.04
H      18.28      15.88      34.97
H      18.29      15.87      37.36
H      20.86      19.22      37.35
H      20.83      19.24      34.97
H      17.46      12.47      25.23
H      17.50      10.08      25.26
H      21.12       8.21      26.97
H      21.19       5.83      26.98
H      18.21       5.73      23.99
H      18.17       8.12      23.95
H      21.71      10.16      25.61
H      21.66      12.54      25.61
H      20.87      27.22      23.99
H      20.84      29.60      24.00
H      18.09      27.17      27.17
H      18.04      29.56      27.15
H      18.19      19.36       7.79
H      21.03      16.63      11.36
H      18.68      18.86       5.40
H      21.29      19.23      42.04
H      18.52      16.36      45.54
H      20.83      18.78      39.64
H       2.32      15.18      59.48
H       5.90      19.07      59.29
H      34.13      15.90      59.34
H      17.26       1.15      25.28
H      21.15      31.78      25.08
H      17.98       3.54      25.13
C       2.25      33.42      64.18
C       3.24      33.43      65.15
C       2.62      33.44      66.40
C       1.01      33.44      64.82
C      33.95      33.45      64.16
C      32.69      33.45      64.81
C      31.12      33.45      66.42
C      30.47      33.46      65.18
C      31.44      33.47      64.19
C      30.49      33.43      67.69
C      31.12      33.48       0.53
C      32.74      33.49       2.11
C      31.49      33.47       2.75
C      30.51      33.47       1.78
C      34.00      33.49       2.78
C       1.05      33.50       2.12
C       2.62      33.51       0.51
C       3.27      33.53       1.75
C       2.30      33.53       2.74
C       3.32      33.45      67.65
C       4.75      33.48      67.63
C       5.45       0.49      67.75
C       6.86       0.51      67.76
C       7.62      33.52      67.65
C       6.90      32.31      67.53
C       5.49      32.28      67.52
C       9.06      33.55      67.68
C       9.82      32.71      66.83
C      11.23      32.73      66.85
C      11.93      33.60      67.72
C      11.12       0.31       0.14
C       9.71       0.27       0.13
C      34.00      33.51       4.21
C      33.78       0.50       4.92
C      33.78       0.51       6.33
C      34.00      33.54       7.08
C       0.02      32.34       6.35
C       0.02      32.32       4.94
C      33.99      33.55       8.51
C      33.02       0.09       9.23
C      33.00       0.11      10.64
C      33.95      33.59      11.39
C       0.71      32.84      10.68
C       0.73      32.82       9.27
C      29.06      33.43      67.72
C      28.34      32.22      67.89
C      26.93      32.22      67.92
C      26.19      33.41      67.77
C      26.92       0.41      67.59
C      28.32       0.42      67.57
C      24.75      33.40      67.78
C      24.00      -0.00      66.89
C      22.59      -0.02      66.89
C      21.87      33.37      67.80
C      22.55      32.62       0.28
C      23.96      32.64       0.28
C      33.95      33.47      62.73
C      33.72      32.29      61.99
C      34.17       0.47      62.02
C      34.16       0.48      60.61
C      33.92      33.51      59.86
C      33.71      32.31      60.58
C      33.90      33.53      58.42
C      32.91      32.81      57.70
C      32.88      32.83      56.29
C      33.83      33.56      55.55
C       0.60       0.08      56.26
C       0.64       0.06      57.67
C      33.51      31.23      29.97
C      33.52      30.24      30.94
C      33.53      30.85      32.19
C      33.53      32.47      30.61
C      33.53      33.73      29.95
C      33.53       0.79      30.61
C      33.53       2.36      32.22
C      33.54       3.00      30.98
C      33.54       2.04      29.99
C      33.53       2.99      33.49
C      33.52       2.29      34.74
C      33.52       0.67      36.32
C      33.51       1.91      36.96
C      33.51       2.90      35.99
C      33.53      33.62      36.98
C      33.53      32.36      36.32
C      33.54      30.79      34.71
C      33.56      30.14      35.95
C      33.56      31.10      36.94
C      33.54      30.16      33.44
C      33.57      28.73      33.41
C       0.58      28.03      33.53
C       0.60      26.62      33.55
C      33.62      25.86      33.44
C      32.40      26.57      33.31
C      32.37      27.98      33.30
C      33.64      24.42      33.47
C      32.80      23.65      32.62
C      32.82      22.24      32.64
C      33.69      21.54      33.51
C       0.34      22.30      34.34
C       0.31      23.70      34.33
C      33.53      33.61      38.41
C       0.52      33.81      39.13
C       0.53      33.79      40.54
C      33.55      33.57      41.28
C      32.35      33.36      40.55
C      32.34      33.38      39.14
C      33.56      33.55      42.71
C       0.10       0.30      43.45
C       0.12       0.29      44.86
C      33.59      33.53      45.59
C      32.84      32.58      44.86
C      32.82      32.59      43.45
C      33.52       4.42      33.52
C      32.31       5.13      33.70
C      32.31       6.54      33.73
C      33.51       7.29      33.57
C       0.50       6.56      33.39
C       0.51       5.15      33.37
C      33.50       8.72      33.59
C       0.09       9.48      32.69
C       0.07      10.89      32.69
C      33.46      11.60      33.60
C      32.65      10.86      34.49
C      32.68       9.45      34.49
C      33.54      33.74      28.52
C      32.36      33.96      27.79
C       0.54      33.55      27.81
C       0.56      33.57      26.41
C      33.58      33.78      25.65
C      32.38      33.98      26.38
C      33.60      33.79      24.22
C      32.86       0.53      23.47
C      32.89       0.52      22.06
C      33.66      33.78      21.34
C       0.18      32.83      22.09
C       0.16      32.84      23.50
C      34.09      33.45      17.73
C      32.90       0.44      16.01
C      33.60      33.94      15.00
C       0.59      32.74      16.72
C       0.10      33.25      19.09
C      33.36      34.18      13.65
C      33.43      33.26      51.93
C       0.40       0.30      50.24
C      33.93      33.81      49.21
C      32.74      32.56      50.90
C      33.21      33.02      53.28
C      34.16      34.08      47.87
C      18.27      33.85      67.61
C      16.55      32.17      67.54
C      15.54      33.16      67.60
C      17.26       0.64      67.68
C      19.63      34.15      67.55
C      14.19      32.83      67.55
C      33.94      15.20      33.41
C      32.27      16.92      33.34
C      33.25      17.93      33.40
C       0.73      16.21      33.47
C       0.03      13.85      33.35
C      32.93      19.28      33.34
C      29.45      25.43      60.18
C      30.44      25.43      61.15
C      29.83      25.44      62.40
C      28.21      25.45      60.82
C      26.95      25.46      60.16
C      25.69      25.46      60.81
C      24.12      25.45      62.42
C      23.47      25.46      61.18
C      24.44      25.47      60.19
C      23.48      25.44      63.69
C      24.18      25.43      64.94
C      25.79      25.43      66.52
C      24.55      25.41      67.16
C      23.56      25.42      66.19
C      27.05      25.44      67.19
C      28.31      25.45      66.53
C      29.88      25.46      64.92
C      30.53      25.47      66.16
C      29.56      25.47      67.15
C      30.52      25.45      63.65
C      31.95      25.48      63.63
C      32.65      26.70      63.75
C      34.06      26.72      63.76
C       0.61      25.53      63.65
C      34.10      24.31      63.53
C      32.69      24.28      63.52
C       2.05      25.55      63.68
C       2.82      24.71      62.83
C       4.23      24.73      62.85
C       4.93      25.60      63.72
C       4.17      26.46      64.55
C       2.77      26.42      64.54
C      27.00      25.51       0.21
C      26.78      26.71       0.92
C      26.78      26.72       2.33
C      27.00      25.54       3.08
C      27.22      24.34       2.35
C      27.22      24.32       0.94
C      26.98      25.56       4.51
C      26.01      26.30       5.23
C      25.99      26.32       6.64
C      26.95      25.59       7.39
C      27.92      24.84       6.68
C      27.93      24.83       5.27
C      22.05      25.43      63.72
C      21.34      24.23      63.89
C      19.93      24.22      63.92
C      19.18      25.42      63.77
C      19.91      26.62      63.59
C      21.32      26.63      63.57
C      17.74      25.41      63.78
C      16.99      26.21      62.89
C      15.58      26.19      62.89
C      14.87      25.37      63.80
C      15.61      24.56      64.69
C      17.02      24.59      64.68
C      26.95      25.47      58.73
C      26.72      24.29      57.99
C      27.17      26.68      58.02
C      27.16      26.69      56.61
C      26.92      25.51      55.86
C      26.70      24.31      56.58
C      26.89      25.53      54.42
C      25.91      24.81      53.70
C      25.87      24.83      52.29
C      26.83      25.56      51.55
C      27.81      26.29      52.26
C      27.84      26.27      53.67
C      26.51      23.23      25.97
C      26.52      22.24      26.94
C      26.53      22.85      28.19
C      26.52      24.48      26.61
C      26.52      25.74      25.95
C      26.53      27.00      26.61
C      26.53      28.57      28.22
C      26.53      29.21      26.98
C      26.54      28.25      25.99
C      26.52      29.20      29.49
C      26.52      28.50      30.74
C      26.52      26.88      32.32
C      26.50      28.12      32.96
C      26.51      29.11      31.99
C      26.52      25.62      32.98
C      26.53      24.36      32.32
C      26.54      22.79      30.71
C      26.55      22.14      31.95
C      26.55      23.11      32.94
C      26.54      22.16      29.44
C      26.56      20.73      29.41
C      27.78      20.03      29.53
C      27.81      18.62      29.55
C      26.61      17.86      29.44
C      25.40      18.58      29.31
C      25.37      19.99      29.30
C      26.64      16.42      29.47
C      25.79      15.65      28.62
C      25.82      14.24      28.64
C      26.69      13.54      29.51
C      27.54      14.30      30.34
C      27.51      15.71      30.33
C      26.53      25.61      34.41
C      27.73      25.82      35.13
C      27.73      25.80      36.54
C      26.55      25.57      37.28
C      25.35      25.36      36.55
C      25.34      25.38      35.14
C      26.56      25.56      38.71
C      27.30      26.51      39.45
C      27.32      26.50      40.86
C      26.59      25.53      41.59
C      25.84      24.58      40.86
C      25.82      24.59      39.45
C      26.52      30.63      29.52
C      25.31      31.34      29.70
C      25.31      32.75      29.73
C      26.50      33.50      29.57
C      27.71      32.77      29.39
C      27.72      31.36      29.37
C      26.49       0.73      29.59
C      27.29       1.48      28.69
C      27.27       2.89      28.69
C      26.46       3.60      29.60
C      25.65       2.87      30.49
C      25.67       1.46      30.49
C      26.54      25.75      24.52
C      25.35      25.96      23.79
C      27.75      25.56      23.81
C      27.76      25.57      22.41
C      26.58      25.79      21.65
C      25.38      25.98      22.38
C      26.60      25.79      20.22
C      25.86      26.74      19.47
C      25.88      26.73      18.06
C      26.65      25.79      17.34
C      27.39      24.83      18.09
C      27.36      24.84      19.50
C      27.09      25.46      13.73
C      25.90      26.65      12.01
C      26.59      25.95      11.00
C      27.79      24.75      12.72
C      27.31      25.25      15.09
C      26.36      26.18       9.65
C      26.42      25.27      47.93
C      27.60      26.51      46.24
C      26.92      25.82      45.21
C      25.74      24.57      46.90
C      26.21      25.03      49.28
C      27.16      26.08      43.87
C      11.27      25.85      63.61
C       9.55      24.18      63.54
C       8.54      25.16      63.60
C      10.26      26.85      63.68
C      12.62      26.15      63.55
C       7.19      24.84      63.55
C      26.94       7.21      29.41
C      25.26       8.92      29.34
C      26.25       9.93      29.40
C      27.94       8.22      29.47
C      27.24       5.85      29.35
C      25.92      11.28      29.34
C      22.45      17.43      56.18
C      23.44      17.43      57.15
C      22.82      17.45      58.40
C      21.21      17.45      56.82
C      19.95      17.46      56.16
C      18.69      17.46      56.81
C      17.11      17.45      58.42
C      16.47      17.47      57.18
C      17.43      17.48      56.19
C      16.48      17.44      59.69
C      17.17      17.43      60.94
C      18.79      17.43      62.52
C      17.55      17.42      63.16
C      16.56      17.42      62.19
C      20.05      17.44      63.19
C      21.31      17.45      62.53
C      22.88      17.46      60.92
C      23.53      17.48      62.16
C      22.56      17.47      63.15
C      23.52      17.46      59.65
C      24.95      17.48      59.63
C      25.65      18.70      59.75
C      27.06      18.72      59.76
C      27.82      17.53      59.65
C      27.10      16.31      59.53
C      25.69      16.29      59.52
C      29.26      17.55      59.68
C      30.02      16.71      58.83
C      31.43      16.74      58.85
C      32.13      17.60      59.72
C      31.38      18.46      60.55
C      29.97      18.43      60.54
C      20.05      17.45      64.62
C      19.83      18.66      65.33
C      19.83      18.67      66.73
C      20.05      17.48      67.48
C      20.28      16.29      66.76
C      20.28      16.27      65.35
C      19.98      17.56       0.51
C      19.01      18.30       1.23
C      18.99      18.32       2.64
C      19.95      17.60       3.39
C      20.91      16.85       2.68
C      20.93      16.83       1.27
C      15.05      17.43      59.72
C      14.34      16.23      59.89
C      12.93      16.22      59.92
C      12.18      17.42      59.77
C      12.91      18.62      59.59
C      14.32      18.63      59.57
C      10.74      17.41      59.78
C       9.99      18.21      58.89
C       8.58      18.19      58.89
C       7.87      17.38      59.80
C       8.60      16.57      60.69
C      10.01      16.59      60.68
C      19.94      17.48      54.73
C      19.72      16.29      53.99
C      20.16      18.68      54.02
C      20.15      18.70      52.61
C      19.92      17.52      51.86
C      19.70      16.32      52.58
C      19.89      17.54      50.42
C      18.91      16.82      49.70
C      18.87      16.83      48.29
C      19.83      17.57      47.55
C      20.80      18.29      48.26
C      20.84      18.28      49.67
C      19.51      15.24      21.97
C      19.52      14.25      22.94
C      19.52      14.86      24.19
C      19.52      16.48      22.61
C      19.52      17.74      21.95
C      19.52      19.00      22.61
C      19.53      20.57      24.22
C      19.53      21.22      22.98
C      19.54      20.25      21.99
C      19.52      21.20      25.49
C      19.51      20.50      26.74
C      19.51      18.88      28.32
C      19.50      20.13      28.96
C      19.50      21.11      27.99
C      19.52      17.62      28.98
C      19.53      16.36      28.32
C      19.54      14.80      26.71
C      19.55      14.15      27.95
C      19.55      15.11      28.94
C      19.54      14.16      25.44
C      19.56      12.73      25.41
C      20.78      12.03      25.53
C      20.80      10.62      25.55
C      19.61       9.86      25.44
C      18.39      10.58      25.31
C      18.37      11.99      25.30
C      19.63       8.42      25.47
C      18.79       7.65      24.62
C      18.82       6.25      24.64
C      19.68       5.55      25.51
C      20.54       6.30      26.34
C      20.51       7.71      26.33
C      19.52      17.61      30.41
C      20.72      17.82      31.13
C      20.73      17.80      32.54
C      19.54      17.57      33.28
C      18.35      17.36      32.55
C      18.33      17.39      31.14
C      19.55      17.56      34.71
C      20.30      18.51      35.45
C      20.31      18.50      36.86
C      19.58      17.54      37.59
C      18.83      16.59      36.86
C      18.82      16.60      35.45
C      19.51      22.63      25.52
C      18.31      23.34      25.70
C      18.30      24.75      25.73
C      19.50      25.50      25.57
C      20.70      24.77      25.39
C      20.71      23.36      25.37
C      19.49      26.94      25.59
C      20.29      27.69      24.69
C      20.27      29.10      24.69
C      19.46      29.81      25.60
C      18.65      29.08      26.49
C      18.67      27.67      26.49
C      19.54      17.75      20.52
C      18.35      17.96      19.79
C      20.74      17.56      19.81
C      20.76      17.58      18.41
C      19.58      17.79      17.65
C      18.37      17.99      18.38
C      19.60      17.80      16.22
C      18.86      18.74      15.47
C      18.88      18.74      14.06
C      19.65      17.79      13.34
C      20.38      16.84      14.09
C      20.36      16.84      15.50
C      20.08      17.46       9.73
C      18.90      18.65       8.01
C      19.59      17.95       7.00
C      20.79      16.75       8.72
C      20.30      17.25      11.09
C      19.36      18.18       5.65
C      19.42      17.27      43.93
C      20.60      18.51      42.24
C      19.92      17.82      41.21
C      18.73      16.57      42.90
C      19.20      17.03      45.28
C      20.15      18.09      39.87
C       4.26      17.86      59.61
C       2.55      16.18      59.54
C       1.53      17.16      59.60
C       3.25      18.85      59.68
C       5.62      18.15      59.55
C       0.18      16.84      59.55
C      19.94      33.42      25.41
C      18.26       0.93      25.34
C      19.24       1.94      25.40
C      20.93       0.22      25.47
C      20.23      32.06      25.35
C      18.92       3.29      25.34
N       1.29      33.45      66.15
N      32.45      33.44      66.14
N      32.45      33.49       0.78
N       1.30      33.49       0.79
N      13.26      33.70      67.75
N      33.87      33.63      54.21
N      20.54      33.28      67.82
N      34.00      33.55      12.72
N      33.53      32.19      31.94
N      33.52       1.03      31.94
N      33.53       0.96      34.99
N      33.53      32.11      34.99
N      33.80      20.21      33.54
N      33.62      33.84      20.01
N      33.37      12.93      33.62
N      33.54      33.46      46.93
N      33.17       0.17      17.32
N       0.30      33.02      15.41
N       1.55      31.76      17.03
N       0.12      -0.00      51.54
N      33.02      32.87      49.60
N      31.79      31.57      51.19
N      17.86      32.55      67.55
N      15.95       0.25      67.67
N      17.58       2.01      67.75
N      32.65      15.62      33.34
N       0.34      17.52      33.46
N       2.11      15.89      33.55
N      28.49      25.45      62.15
N      25.44      25.44      62.14
N      25.51      25.44      65.19
N      28.56      25.44      65.20
N       6.26      25.71      63.75
N      26.86      25.63      50.21
N      13.54      25.28      63.82
N      26.99      25.55       8.72
N      26.53      24.19      27.94
N      26.52      27.24      27.94
N      26.52      27.17      30.99
N      26.52      24.12      30.99
N      26.79      12.21      29.54
N      26.62      25.84      16.01
N      26.37       4.94      29.62
N      26.54      25.46      42.93
N      26.17      26.38      13.32
N      27.51      25.03      11.41
N      28.75      23.77      13.03
N      27.33      26.21      47.54
N      26.02      24.88      45.60
N      24.78      23.57      47.19
N      10.85      24.56      63.55
N       8.95      26.46      63.67
N      10.58      28.22      63.75
N      25.64       7.62      29.34
N      27.54       9.52      29.46
N      29.31       7.89      29.55
N      21.49      17.45      58.15
N      18.44      17.45      58.14
N      18.51      17.44      61.19
N      21.56      17.44      61.20
N      33.46      17.71      59.75
N      19.86      17.63      46.21
N       6.53      17.29      59.82
N      19.99      17.55       4.72
N      19.52      16.19      23.94
N      19.52      19.24      23.94
N      19.52      19.17      26.99
N      19.52      16.12      26.99
N      19.79       4.22      25.54
N      19.61      17.84      12.01
N      19.37      31.15      25.62
N      19.54      17.46      38.93
N      19.17      18.38       9.32
N      20.50      17.03       7.41
N      21.75      15.77       9.03
N      20.32      18.21      43.54
N      19.02      16.88      41.60
N      17.78      15.57      43.19
N       3.85      16.56      59.55
N       1.95      18.46      59.67
N       3.58      20.23      59.75
N      18.64      33.83      25.34
N      20.54       1.53      25.46
N      22.31      34.10      25.55
O       2.67      32.08      16.55
O       1.22      30.65      16.56
O      30.67      31.88      50.71
O      32.14      30.47      50.69
O      17.10       2.63      66.77
O      17.06       2.58       0.39
O       2.72      16.37      32.57
O       2.61      16.36      34.60
O      29.87      24.08      12.55
O      28.42      22.65      12.56
O      23.66      23.88      46.71
O      25.13      22.47      46.69
O      10.09      28.84      62.77
O      10.11      28.73      64.80
O      29.92       8.38      28.57
O      29.81       8.36      30.60
O      22.87      16.09       8.55
O      21.42      14.66       8.56
O      16.66      15.88      42.71
O      18.13      14.47      42.69
O       3.09      20.84      58.77
O       3.11      20.73      60.80
O      22.92       0.38      24.57
O      22.81       0.36      26.60
