12

Zn       3.21       4.23       5.39
O       3.44       6.19       5.38
O       3.74       2.35       5.33
O       3.77       4.31       7.28
O       3.41       4.23       3.44
H       0.72       3.26       6.11
C       4.53       6.89       5.28
C       4.94       1.87       5.21
C       4.47       4.53       2.73
C       5.00       4.24       7.75
N       1.17       4.03       5.60
N       0.36       4.73       4.89
