12

Zn       6.26       4.53       5.09
O       5.73       6.42       5.16
O       6.03       2.57       5.10
O       5.69       4.45       3.21
O       6.06       4.54       7.05
H       8.75       5.50       4.38
C       4.53       6.89       5.28
C       4.94       1.87       5.21
C       4.47       4.53       2.73
C       5.00       4.24       7.75
N       9.11       4.03       5.60
N       8.30       4.73       4.89
