14

O      -0.45       5.73       5.37
H      -4.01       2.93       4.50
O       0.29       5.09       7.42
H      -1.15       3.22       8.42
O      -0.56       0.42       7.57
C      -1.63       4.04       6.48
C      -3.34       2.98       5.36
O      -1.30       1.05       5.51
C      -0.51       5.04       6.48
C      -3.51       2.10       6.45
C      -1.81       3.15       7.56
C      -0.49       1.11       6.45
N      -2.42       3.95       5.39
N      -2.73       2.19       7.54
