58

Eu      13.85      10.67      11.69
Eu       0.59       2.58       0.02
H       6.90       6.48       8.08
H       4.40       9.58       7.52
H       4.89       9.46       5.28
H      12.28      11.68       8.09
H       4.81       4.50       7.77
H       4.60       4.35       5.49
H       7.54       6.77       3.62
H      10.03       3.68       4.19
H       9.55       3.80       6.43
H       2.16       1.57       3.62
H       9.63       8.75       3.94
H       9.84       8.91       6.21
C       5.33       8.11       9.54
C       6.75       7.11       6.15
C       6.49       7.11       7.53
C       5.61       8.06       8.06
C       5.00       8.94       7.20
C       5.31       8.86       5.85
C      12.92       3.00       9.72
C       2.71       1.95       6.20
C      12.03       1.97       7.58
C       3.59       2.95       8.20
C       4.27       3.85       7.40
C       4.13       3.75       6.03
C       9.10       5.14       2.16
C       7.69       6.14       5.56
C       7.94       6.15       4.18
C       8.83       5.20       3.65
C       9.43       4.31       4.51
C       9.12       4.40       5.85
C       1.51      10.26       1.99
C      11.73      11.30       5.51
C       2.40      11.28       4.13
C      10.85      10.31       3.51
C      10.17       9.41       4.31
C      10.31       9.51       5.68
N       6.16       7.98       5.32
N       3.35       2.83       5.42
N       6.49       8.00       0.56
N       8.27       5.28       6.39
N      11.08      10.43       6.29
N       7.94       5.25      11.15
O       5.81       7.21      10.25
O       4.63       9.07       9.96
O      13.02      12.45      10.37
O       4.36       3.94      10.18
O      11.42      10.26      11.26
O       7.31       8.61       1.25
O       5.28       8.03       0.80
O       8.62       6.04       1.46
O       9.81       4.18       1.74
O       1.41       0.80       1.34
O      10.07       9.32       1.52
O       3.01       3.00       0.45
O       7.12       4.64      10.46
O       9.16       5.23      10.91
