38

C       9.08       6.67      16.24
C       9.13       6.71      10.52
H      10.08       3.45      10.15
H      11.44       4.24      16.60
C       9.01       6.74      14.81
C       9.12       6.80      11.94
H      11.04       2.64      12.22
H      11.66       3.00      14.53
C       8.55       7.89      12.68
C       8.35       7.78      14.08
H       8.07       8.41       9.53
H       8.13       8.44      17.23
C       9.02       7.90       9.64
C       8.10       7.36      17.11
H       8.90       9.72      11.45
H       6.60       8.40      15.31
C       8.16       9.15      12.00
C       7.46       8.75      14.76
C      10.68       6.30      18.15
O      10.29       7.44      18.58
C       8.67       5.14       8.60
O       7.87       6.04       8.16
C       9.71       5.75      14.08
O      11.68       5.65      18.67
C       9.62       5.70      12.67
O       8.74       3.94       8.07
C      11.03       3.72      14.04
C      10.73       3.54      12.71
O       9.97       8.27       8.98
O       7.29       6.71      17.75
C      10.73       4.90      16.11
C       9.86       4.40      10.63
O       7.01       9.56      12.04
O       7.69       9.95      14.73
C       9.32       5.44       9.90
C      10.09       5.89      16.85
C      10.48       4.78      14.75
C      10.08       4.55      12.00
