32

O      15.09      18.63       9.60
C      16.96      27.10      16.85
C      15.67      26.37      16.66
C      14.59      26.56      17.53
C      13.38      25.88      17.30
C      13.25      24.99      16.23
C      14.35      24.77      15.38
C      15.55      25.47      15.60
C      12.24      26.10      18.26
C      13.24      23.16      13.80
C      13.57      22.27      12.65
C      12.57      22.07      11.68
C      12.81      21.22      10.60
C      14.02      20.53      10.50
C      15.01      20.70      11.48
C      14.79      21.58      12.54
C      14.26      19.56       9.38
H      14.68      27.21      18.39
H      12.31      24.47      16.06
H      16.41      25.32      14.95
H      11.62      22.58      11.78
H      12.04      21.07       9.84
H      15.93      20.12      11.40
H      15.55      21.68      13.32
H      15.19      23.78      13.79
N      14.32      23.86      14.31
O      17.94      26.80      16.11
O      17.04      27.99      17.78
O      12.54      26.60      19.39
O      11.07      25.78      17.91
O      12.09      23.27      14.24
O      13.61      19.73       8.29
