32

H      18.32      17.68       5.68
H      15.93      20.39       3.33
H      20.03      19.53       2.21
H      15.22      22.26      -0.98
H      15.65      23.76      -2.91
H      19.53      24.72      -1.33
H      19.14      23.17       0.58
H      18.79      21.06       1.03
C      20.58      17.77       4.13
C      19.29      18.50       3.93
C      18.21      18.33       4.81
C      17.01      19.01       4.58
C      16.87      19.88       3.50
C      17.96      20.09       2.64
C      19.17      19.39       2.86
C      15.88      18.82       5.55
O      21.57      18.08       3.41
O      20.65      16.86       5.04
O      16.19      18.39       6.71
O      14.70      19.10       5.18
C      16.84      21.69       1.05
C      17.17      22.58      -0.10
O      15.70      21.59       1.51
C      16.18      22.77      -1.07
C      18.39      23.27      -0.20
C      16.41      23.62      -2.15
C      18.61      24.15      -1.26
C      17.63      24.32      -2.25
C      17.87      25.28      -3.37
O      17.22      25.11      -4.46
O      18.71      26.21      -3.16
N      17.93      20.98       1.56
