32

H      14.20      16.00       5.63
H      16.58      13.26       3.31
H      12.47      14.10       2.20
H      17.28      11.36      -0.96
H      16.88       9.86      -2.90
H      12.99       8.89      -1.36
H      13.35      10.45       0.56
H      13.70      12.57       1.03
N      14.56      12.65       1.56
O      10.94      15.57       3.35
C      11.92      15.88       4.10
C      13.22      15.15       3.91
C      14.30      15.34       4.77
O      17.82      14.54       5.14
O      16.79      12.05       1.50
O      16.37      15.38       6.63
C      15.50      14.66       4.55
O      15.32       8.51      -4.46
O      13.82       7.42      -3.16
O      11.82      16.77       5.02
C      15.65      11.94       1.05
C      15.33      11.05      -0.10
C      15.64      13.78       3.48
C      14.54      13.55       2.63
C      13.33      14.25       2.85
C      16.65      14.87       5.50
C      16.33      10.86      -1.07
C      14.11      10.35      -0.21
C      16.10      10.01      -2.15
C      13.90       9.47      -1.27
C      14.89       9.31      -2.25
C      14.66       8.34      -3.37
