32

H      21.42      17.66       7.13
H      23.80      20.40       9.46
H      19.70      19.56      10.57
H      24.49      22.30      13.73
H      24.07      23.80      15.67
H      20.18      24.75      14.11
H      20.55      23.20      12.20
H      20.92      21.09      11.73
N      21.79      21.01      11.20
O      18.17      18.08       9.41
O      19.06      16.88       7.74
O      23.57      18.27       6.13
O      25.04      19.10       7.61
O      24.02      21.60      11.27
O      22.49      25.14      17.23
O      21.01      26.24      15.92
C      19.15      17.77       8.66
C      20.44      18.50       8.86
C      21.52      18.31       7.99
C      22.73      19.00       8.21
C      22.86      19.88       9.28
C      21.76      20.10      10.13
C      20.56      19.41       9.92
C      23.86      18.78       7.26
C      22.87      21.71      11.72
C      22.54      22.61      12.86
C      23.53      22.80      13.84
C      23.30      23.65      14.92
C      22.09      24.35      15.02
C      21.10      24.17      14.03
C      21.32      23.30      12.97
C      21.85      25.31      16.14
