32

C      17.00       6.57      21.41
C      15.70       7.29      21.61
C      14.62       7.10      20.74
C      13.42       7.79      20.96
C      13.28       8.67      22.03
C      14.38       8.90      22.88
C      15.58       8.20      22.67
C      12.27       7.58      20.02
C      13.27      10.51      24.45
C      13.59      11.40      25.61
C      12.59      11.59      26.58
C      12.81      12.44      27.66
C      14.02      13.13      27.77
C      15.02      12.97      26.79
C      14.81      12.09      25.72
C      14.26      14.10      28.89
H      14.71       6.45      19.88
H      12.34       9.19      22.21
H      16.45       8.35      23.31
H      11.63      11.09      26.47
H      12.04      12.58      28.42
H      15.93      13.55      26.87
H      15.57      12.00      24.95
H      15.22       9.87      24.49
N      14.36       9.80      23.96
O      17.98       6.88      22.16
O      17.09       5.68      20.49
O      12.55       7.07      18.88
O      11.10       7.90      20.37
O      12.14      10.42      23.98
O      13.60      13.93      29.97
O      15.10      15.03      28.68
