128

Cr       6.58       3.71       9.37
Cr       8.18       6.76       9.38
Cr      10.00       3.82       9.36
Cr      15.37       8.89       0.00
Cr      12.14       9.04      18.73
Cr      13.50       6.00       0.02
H       3.80       3.19      14.27
H       4.45       3.49      16.59
H       3.76       4.90      12.58
H       3.18       5.27      14.97
H       5.76       8.69      15.03
H       6.13       8.44      12.66
H      11.17       4.19       5.61
H      11.23       4.41       3.24
H      10.14       8.59       3.57
H      10.59       8.60      15.16
H       9.94       8.32       6.00
H       6.22       0.77       3.66
H      10.47       1.97       5.89
H       5.70       8.42       6.13
H       5.40       8.63       3.76
H       4.62       4.39       3.43
H       4.98       4.16       5.84
H      11.62       4.41      15.39
H      11.49       4.22      13.03
H       1.83       1.23      12.71
H      11.10       1.95      16.58
H      10.62       1.24      11.75
H       6.78       3.21      17.24
H       8.45       9.07      13.71
H       8.29       7.51      12.85
H       8.25       9.02      11.90
H       3.37       2.71      11.70
H       4.06       1.38      12.70
H       4.53       1.55      10.99
H       1.84       0.13      16.76
H       2.34       1.84      17.24
H       3.56       0.62      16.78
C       5.98       6.12      11.29
C      11.32       5.28      14.83
C      11.28       5.19      13.47
C      10.89       6.29      12.69
C       8.60       1.99      15.75
C      10.99       1.80      15.51
C       1.19       1.56      14.72
C       1.00       1.45      13.35
C      10.68       1.56      12.77
C       9.55       1.96      13.53
C       9.71       1.93      14.93
C      10.50       6.02      11.32
C       7.17       2.61      13.87
C       7.45       2.60      15.26
C       5.79       2.83      13.52
C       4.83       3.06      14.53
C       5.19       3.24      15.84
C       6.51       3.08      16.20
C       8.28       2.33      12.95
C       4.23       5.70      13.12
C       3.90       5.92      14.48
C       4.58       6.89      15.22
C       8.19       2.67      11.48
C       5.32       7.84      14.52
C       5.57       7.68      13.17
C       5.21       6.49      12.51
C      10.94       5.16       5.19
C      10.95       5.28       3.82
C      10.76       6.54       3.23
C      10.34       7.62       4.01
C      10.26       7.48       5.40
C      10.63       6.27       5.99
C       7.19       1.11       5.49
C       5.99       6.10       7.46
C       7.16       1.04       4.12
C       8.32       1.28       3.37
C       9.53       1.56       4.01
C       9.55       1.68       5.40
C       8.36       1.53       6.13
C       5.45       7.53       5.56
C       5.31       7.64       4.20
C       5.06       6.51       3.41
C       4.86       5.26       4.02
C       5.03       5.14       5.39
C      10.42       6.02       7.40
C       5.39       6.27       6.16
C       8.44       1.04      16.88
C      11.55       6.67      16.81
C       4.52       6.99      16.70
C       8.25       0.97       1.95
C      11.34       6.75       1.92
C       4.83       6.71       2.00
C       8.24       2.14       7.44
C      10.62       7.52      13.31
C      10.75       7.63      14.69
C      11.09       6.51      15.45
C       8.71       8.53      12.78
C       4.28       2.11      11.91
C       2.53       0.98      16.56
O       7.10       2.36      10.87
O       9.51       6.71       7.99
O      10.87       4.93       7.86
O       9.26       2.68       7.97
O       8.25       4.76       9.37
O       5.48       7.68      17.25
O       9.44       0.39      17.34
O       7.25       0.75      17.22
O      11.48       7.83      17.34
O      12.28       5.73      17.25
O       4.09       5.95      17.37
O       5.97       4.92      10.77
O       5.32       7.77       1.52
O       9.27       0.47       1.38
O       7.09       0.84       1.48
O      11.31       7.92       1.39
O      12.11       5.81       1.52
O       3.92       6.03       1.42
O      13.61       8.00       0.00
O       6.80       6.99      10.89
O       9.54       6.69      10.77
O      10.91       4.91      10.87
O       9.29       2.66      10.75
O       7.07       2.38       7.86
O       5.94       4.94       7.99
O       6.77       7.02       7.88
O      10.11       8.56      12.59
O       5.35       2.97      12.23
O       2.48       1.39      15.21
F       6.04       0.87       6.17
F      10.68       1.74       3.31
