138

Cu      12.56       2.80       1.62
Cu       7.02      10.36       6.13
Cu      -0.08      12.31      13.87
Cu       5.47       4.76       9.37
Cu      12.49      15.11      15.49
Cu       6.24       7.56       7.75
H       6.73       5.93      11.76
H       8.29       5.16      13.57
H       8.46       1.32      11.61
H       6.86       2.22       9.90
H       3.74       4.94      11.71
H       2.23       3.43      13.02
H       2.71       0.48       9.90
H       4.17       2.12       8.70
H      12.00      13.48      11.48
H      10.44      12.72       9.67
H      10.27       8.88      11.63
H      11.87       9.78      13.34
H       1.64      12.49      11.53
H       3.15      10.98      10.22
H       2.68       8.04      13.34
H       1.22       9.68      14.55
H       5.76       9.19       3.74
H       4.20       9.95       1.92
H       4.03      13.79       3.89
H       5.62      12.89       5.59
H       8.74      10.17       3.78
H      10.25      11.68       2.47
H       9.78      14.63       5.59
H       8.32      12.99       6.80
H       0.49       1.63       4.01
H       2.05       2.40       5.83
H       2.22       6.23       3.86
H       0.62       5.33       2.15
H      10.84       2.62       3.96
H       9.33       4.13       5.27
H       9.80       7.08       2.15
H      11.27       5.43       0.95
C       7.13       4.91      11.78
C       8.00       4.48      12.77
C       8.50       3.17      12.73
C       8.09       2.35      11.67
C       7.21       2.84      10.73
C       9.43       2.68      13.73
C       3.49       3.94      11.35
C       2.65       3.10      12.07
C       2.35       1.83      11.57
C       2.91       1.46      10.33
C       3.74       2.35       9.67
C       1.50       0.93      12.32
C      11.60      12.47      11.47
C      10.73      12.04      10.47
C      10.23      10.73      10.51
C      10.64       9.90      11.57
C      11.52      10.40      12.51
C       9.30      10.24       9.51
C       1.89      11.49      11.89
C       2.74      10.66      11.17
C       3.04       9.38      11.68
C       2.47       9.01      12.91
C       1.65       9.91      13.57
C       3.89       8.49      10.92
C       5.35      10.20       3.72
C       4.49      10.63       2.72
C       3.98      11.94       2.76
C       4.40      12.77       3.82
C       5.28      12.27       4.77
C       3.06      12.43       1.76
C       8.99      11.17       4.14
C       9.84      12.01       3.43
C      10.13      13.28       3.93
C       9.57      13.65       5.16
C       8.75      12.76       5.82
C      10.99      14.18       3.17
C       0.89       2.64       4.03
C       1.76       3.07       5.02
C       2.26       4.38       4.98
C       1.85       5.21       3.93
C       0.97       4.71       2.98
C       3.19       4.87       5.99
C      10.59       3.62       3.61
C       9.75       4.45       4.32
C       9.45       5.73       3.82
C      10.01       6.10       2.59
C      10.84       5.20       1.92
C       8.60       6.62       4.58
N       6.74       4.10      10.77
N       9.83       3.38      14.82
N      10.68       2.55      15.42
N      10.79       1.41      14.74
N      10.01       1.46      13.67
N       4.04       3.57      10.17
N       0.82       1.32      13.42
N       0.21       0.22      13.82
N       0.50      14.30      13.01
N       1.31      14.73      12.06
N       0.74       1.77       0.77
N       1.92       2.04       0.88
N       3.05       2.30       0.98
N      12.00      11.66      12.47
N       8.90      10.94       8.43
N       8.05      10.11       7.82
N       7.94       8.96       8.50
N       8.72       9.01       9.57
N       1.35      11.12      13.07
N       4.57       8.88       9.82
N       5.18       7.78       9.42
N       4.89       6.75      10.23
N       4.08       7.17      11.19
N       5.50       9.32       6.98
N       4.32       9.59       6.86
N       3.20       9.86       6.77
N       5.75      11.01       4.72
N       2.65      11.73       0.68
N       1.81      12.56       0.08
N       1.70      13.71       0.75
N       2.47      13.65       1.82
N       8.45      11.54       5.32
N      11.67      13.79       2.07
N      12.28      14.89       1.67
N      11.99       0.81       2.48
N      11.17       0.38       3.44
N      11.74      13.34      14.73
N      10.57      13.08      14.61
N       9.44      12.81      14.52
N       0.49       3.45       3.03
N       3.59       4.18       7.07
N       4.44       5.00       7.67
N       4.54       6.15       6.99
N       3.77       6.10       5.93
N      11.13       3.99       2.43
N       7.92       6.23       5.67
N       7.30       7.33       6.07
N       7.60       8.36       5.27
N       8.41       7.94       4.31
N       6.99       5.79       8.51
N       8.17       5.52       8.63
N       9.29       5.25       8.73
