25

Ni       9.09       4.31      27.65
Ni      12.26       9.95      27.68
Ni      10.67       7.13      27.64
C       7.69       4.87      25.37
C      13.61       9.42      25.37
C      11.13       4.88      25.73
O      10.36       3.95      29.03
O      11.44       5.97      29.08
O      13.59      10.22      29.00
C      11.14       4.84      29.54
O       7.77       4.01      28.94
O      10.97      10.30      29.03
O       9.83       8.31      29.05
O      11.01      10.28      26.25
O       9.90       8.26      26.19
O       7.75       4.00      26.35
O      13.61      10.23      26.40
O      10.35       4.00      26.26
O      11.45       6.01      26.20
O       9.12       6.16      27.65
C      13.47       9.49      30.08
O      12.21       8.09      27.68
C       7.71       4.87      29.92
C      10.20       9.40      29.56
C      10.23       9.39      25.73
