25

Ni       1.57      11.39      13.84
Ni      -1.55      17.08      13.83
Ni       0.03      14.24      13.84
C       3.03      11.97      16.08
C       0.49      16.51      15.74
C      -0.41      11.99      15.78
C      -2.95      16.51      16.09
O      -2.88      17.39      12.52
O       0.31      11.06      12.47
O      -0.71      13.11      12.38
O      -0.30      17.37      12.43
O       0.76      15.35      12.37
O       2.88      11.09      12.52
O       2.90      11.08      15.13
O      -0.30      17.40      15.22
O       0.83      15.40      15.25
C      -0.43      11.97      11.92
C      -3.01      16.48      11.60
O       0.32      11.08      15.23
O      -0.66      13.15      15.36
O      -2.87      17.39      15.12
O       1.57      13.26      13.82
O      -1.52      15.21      13.85
C       0.46      16.48      11.90
C       2.96      11.94      11.53
