28

Mg      10.39       5.30      17.43
Mg       7.29       3.86      18.63
Mg      14.82       5.94      20.78
Mg      11.73       7.38      19.58
C       7.63       4.33      16.21
C      10.04       2.45      18.50
C       8.95       6.02      20.14
C      12.06       6.91      22.00
C      14.48       8.79      19.71
C      13.38       5.22      18.07
C      10.40       8.30      17.13
C       5.97       2.94      21.08
O       9.99       6.01      19.42
O       8.35       4.93      17.08
O       6.73       3.52      16.59
O       7.92       5.31      20.02
O      10.74       3.41      18.08
O       8.78       2.48      18.70
O       5.56       5.22      18.79
O      12.78       6.31      21.13
O      11.16       7.72      21.62
O      12.36       5.93      18.19
O      15.18       7.83      20.13
O      13.21       8.76      19.51
O      10.73       8.57      18.31
O      10.15       7.15      16.69
O       6.30       2.67      19.90
O      14.59       4.09      21.52
