95

Zn       1.07       5.21       6.25
Zn       4.12       5.21       6.25
H       4.58       5.31      10.57
H       2.13       9.15       3.60
H       0.31       9.07       3.93
H      -1.18       2.68       4.25
H       4.10       1.23       7.96
H       3.69       8.41       8.46
H       3.60       0.91       3.65
H       3.38       1.55       1.38
H       1.59       1.36       1.49
H       2.26      10.56       1.54
H      -0.38       0.45       4.19
H       5.31       6.75       7.91
H      -1.55       7.93       7.76
H      -1.31       2.67       7.16
H       5.29       2.75       4.07
H       7.10       7.02       3.48
H       6.36       1.29       6.19
H       9.05       5.75       1.62
H       0.77       7.31       1.02
H       9.15       8.16       0.76
H      -4.27       7.19      11.86
H      -0.40       5.91       9.53
H      -0.49       8.32       9.93
H       1.15       7.92       9.26
H       0.91       8.17      11.04
H       0.15       3.46       1.67
H      -1.64       3.81      10.28
H      -2.79       2.47      11.49
H       5.07       7.40       4.11
H       4.40       9.55       3.48
H       4.02       8.96       1.82
H       5.73       9.08       2.38
C       2.67       2.66       6.23
C       4.22       5.27       0.29
C       3.97       5.69       1.60
C       1.10       5.36      12.23
C       6.58       5.92       0.52
C       6.32       6.42       1.81
C       4.98       6.49       2.25
C       1.20       5.58      10.87
C       3.60       5.41      11.03
C       2.78       5.26       2.25
C       1.80       0.50       5.55
C       2.71       5.30       3.71
C       2.67       1.25       6.33
C       3.51       0.64       7.27
C       3.18       9.91       7.34
C       2.45       9.17       6.39
C       1.51       9.79       5.58
C       1.27       9.60       4.12
C       1.58       0.46       4.05
C       6.86       4.41       5.40
C       6.86       6.15       6.95
C      -1.65       6.19       6.90
C       2.51       7.76       6.30
C      -1.68       4.41       5.40
C      -1.61       2.93       5.23
C       6.81       2.92       5.26
C       2.49       5.24       8.80
C       3.51       5.67      12.41
C       2.44       5.41      10.25
C       1.81       4.50       1.55
C       2.04       4.13       0.22
C      -1.11       4.27      12.09
C       2.56       0.97       1.85
C      -0.17       7.30       0.43
C       0.45       7.76      10.12
C       4.69       8.84       2.69
N       6.15       5.20       6.24
N      -0.96       5.20       6.24
N       2.65       1.09       3.29
N       9.08       6.05       0.64
N       0.16       6.35      10.28
N       4.60       7.49       3.20
O       1.52       3.26       6.25
O       3.81       3.26       6.25
O       1.56       5.25       4.33
O       3.84       5.25       4.33
O       1.38       7.16       6.25
O       3.66       7.16       6.25
O       1.35       5.17       8.18
O       3.63       5.17       8.18
O       3.98       9.34       8.31
O       0.31       0.93       3.66
O       6.23       7.07       7.75
O      -0.93       7.20       7.49
O      -1.01       2.25       6.31
O       6.25       2.51       4.04
O       7.34       7.02       2.52
O       6.26       2.26       6.37
O       0.73       3.99       2.26
O      -0.82       3.79      10.83
O      -3.26       3.10      12.09
