94

Mn       9.70       8.01       4.84
Mn       5.38       6.59       6.64
H       4.89       4.88       3.77
H       4.13       3.32       1.97
H       8.74       5.77      11.42
H       8.44       5.73       1.54
H       9.53       6.75       9.47
H      11.02       6.52       7.50
H       5.78       6.76       9.85
H       9.85       4.26       0.45
H       5.86       9.79       7.63
H       6.63      11.91       8.72
H      10.65       2.14       8.57
H      10.95      11.75       6.28
H       9.86       3.81       7.16
H       8.37       5.78       6.91
H       4.97       3.44       7.24
H       9.54      13.16       7.45
H      10.18       9.73       7.71
H      10.95      11.29       9.51
H       6.33       8.83       0.06
H       6.63       8.87       9.94
H       5.54       7.86       2.01
H       4.05       8.08       3.98
H       9.29       7.84       1.63
H       5.22      10.34      11.03
H       9.21       4.81       3.85
H       8.45       2.69       2.76
H       4.42      12.46       2.91
H       4.12       2.85       5.20
H       5.21      10.79       4.32
H       6.70       8.83       4.56
H      10.10      11.17       4.24
H       5.53       1.44       4.03
C       7.12       6.39       3.80
C       6.70       5.40       2.75
C       5.49       4.71       2.87
C       5.07       3.85       1.86
C       5.86       3.66       0.72
C       7.09       4.33       0.59
C       7.50       5.19       1.62
C      11.17       6.92      10.88
C      10.61       6.73       9.61
C      11.44       6.60       8.50
C       4.69       6.76       9.81
C      12.57       6.93      10.97
C      12.27       9.40       6.16
C      12.69      10.66       6.88
C       5.27      10.70       7.58
C       5.69      11.89       8.18
C      13.54      13.04       8.09
C      12.30      13.01       7.42
C      11.89      11.80       6.82
C       8.23       2.39       7.33
C       8.78       3.68       7.20
C       7.95       4.78       7.07
C       6.06       3.47       7.23
C       6.82       2.31       7.34
C       7.95       8.21       7.68
C       8.37       9.20       8.73
C       9.59       9.89       8.61
C      10.01      10.75       9.62
C       9.22      10.94      10.76
C       7.98      10.28      10.89
C       7.57       9.41       9.86
C       3.91       7.69       0.60
C       4.46       7.87       1.87
C       3.63       8.00       2.98
C      10.38       7.84       1.67
C       2.50       7.68       0.51
C       2.80       5.20       5.32
C       2.38       3.95       4.60
C       9.81       3.91       3.90
C       9.39       2.72       3.30
C       1.54       1.57       3.39
C       2.77       1.60       4.06
C       3.18       2.80       4.66
C       6.85      12.21       4.15
C       6.29      10.93       4.27
C       7.12       9.82       4.41
C       9.01      11.13       4.25
C       8.25      12.29       4.14
N       4.15       6.61       8.59
N       6.61       4.70       7.09
N      10.93       7.99       2.89
N       8.47       9.90       4.39
O       8.27       6.94       3.64
O       6.30       6.66       4.73
O      11.13       9.43       5.59
O       4.45       8.43       6.12
O       6.81       7.66       7.84
O       8.77       7.94       6.75
O       3.95       5.18       5.88
O      10.62       6.17       5.36
