48

H       1.02       8.36       6.85
H       6.44       6.87       8.87
H       4.50       5.74       7.78
H       3.71       9.31       5.50
H       3.10       5.72       5.65
H       1.97       6.64       6.62
H       5.64      10.44       6.62
H       1.21       8.56       2.52
H       3.33       3.37       0.50
H       4.22       5.43       1.59
H       0.59       5.78       3.87
H       4.08       6.82       3.72
H       3.03       7.83       2.76
H      -0.31       3.73       2.76
H      -1.65      10.92       4.69
C       0.69       8.72       5.89
C      -0.36       9.65       5.88
C       7.32       9.41       8.43
C       3.97       7.46       6.57
C       6.15       8.73       7.81
C       5.83       7.40       8.14
C       4.74       6.78       7.53
C       4.30       8.78       6.25
C       2.80       6.74       5.90
C       5.37       9.41       6.86
C      -0.99      10.03       7.18
C       0.80       8.86       3.48
C      -0.24       9.79       3.49
C       0.92       2.19       0.95
C       2.46       5.75       2.80
C       1.45       3.43       1.56
C       2.73       3.91       1.23
C       3.22       5.06       1.85
C       1.18       5.26       3.13
C       3.02       6.99       3.47
C       0.68       4.12       2.51
C      -0.70      10.36       2.19
C       1.29       8.30       4.69
C      -0.84      10.20       4.69
N       2.33       7.38       4.69
O      -0.90       9.19       8.15
O       8.12       8.69       9.13
O       7.44      10.67       8.20
O      -1.58      11.17       7.23
O       0.15      10.37       1.23
O       1.72       1.48       0.25
O      -0.32       1.92       1.18
O      -1.90      10.82       2.15
