48

H       7.56       1.33      11.89
H       2.15       2.81       9.88
H       4.09       3.94      10.97
H       4.88       0.37      13.25
H       5.48       3.97      13.09
H       6.61       3.04      12.13
H       2.95      -0.76      12.13
H       7.38       1.12      16.23
H       5.26       6.32      18.24
H       4.37       4.25      17.15
H       8.00       3.90      14.87
H       4.51       2.87      15.03
H       5.56       1.86      15.99
H       8.89       5.95      15.99
H      10.24      -1.23      14.06
C       7.90       0.96      12.86
C       8.95       0.03      12.86
C       1.27       0.27      10.32
C       4.62       2.23      12.18
C       2.44       0.96      10.94
C       2.76       2.28      10.61
C       3.84       2.91      11.22
C       4.29       0.91      12.50
C       5.78       2.94      12.84
C       3.21       0.27      11.88
C       9.58      -0.35      11.56
C       7.79       0.83      15.27
C       8.83      -0.10      15.26
C       7.67       7.49      17.80
C       6.13       3.94      15.94
C       7.13       6.25      17.18
C       5.85       5.77      17.51
C       5.36       4.62      16.90
C       7.41       4.42      15.62
C       5.57       2.69      15.28
C       7.91       5.56      16.24
C       9.29      -0.68      16.56
C       7.30       1.38      14.06
C       9.43      -0.51      14.06
N       6.26       2.30      14.06
O       9.48       0.49      10.60
O       0.47       0.99       9.62
O       1.15      -0.98      10.55
O      10.17      -1.49      11.52
O       8.44      -0.69      17.52
O       6.87       8.20      18.50
O       8.90       7.77      17.57
O      10.48      -1.13      16.60
