18

Fe      -1.82       7.54       3.73
Fe       0.63       7.33       5.38
C       0.92       7.82       2.44
Fe      -4.09       8.90       4.64
S       1.65       9.03       6.64
S      -0.79       5.58       4.55
S      -3.14       9.06       2.50
O      -3.34       7.07       5.04
O      -0.93       8.69       5.10
O       1.46       7.95       3.66
O       2.04       6.11       6.06
C      -1.64       4.79       5.91
C       0.78      10.58       6.66
C      -3.84       6.07       5.77
O      -0.34       7.56       2.36
O      -2.67      10.10       5.35
C      -1.42       9.84       5.57
C      -4.06       8.31       1.18
