14

O      26.31       1.31      10.00
O      26.90       0.98       7.28
C      27.35      -0.18       6.98
C      23.12      -0.18       9.84
Cu      25.24       1.23       8.40
O      26.37      -0.97      10.06
O      24.15       1.31       6.80
O      23.57       0.97       9.52
O      24.13      -0.97       6.73
O      26.84      -1.31       7.34
O      23.64      -1.31       9.50
Cu      25.24      -1.23       8.41
C      26.67       0.18      10.52
C      23.80       0.18       6.29
