14

O      26.84       9.49      32.33
O      26.91       9.51      34.61
C      23.12       6.97      33.46
Cu      25.23       8.40      34.87
O      23.58       7.27      34.61
O      23.64       7.33      32.33
O      26.30       6.80      34.95
O      26.36       6.74      32.66
C      26.66       6.29      33.82
C      23.80      10.52      33.82
Cu      25.24       8.40      32.41
O      24.14      10.00      34.95
O      24.12      10.07      32.67
C      27.36       9.84      33.46
