14

C       9.84      27.35      17.01
C       6.97      23.12      17.01
Cu       8.41      25.23      15.59
C       6.29      26.66      16.63
O       9.51      26.91      15.85
C      10.52      23.80      16.63
O       7.27      23.58      15.85
O       9.50      26.84      18.14
Cu       8.41      25.24      18.05
O       6.80      26.30      15.50
O       7.33      23.64      18.14
O       6.74      26.36      17.79
O      10.00      24.14      15.50
O      10.07      24.12      17.79
