14

C       9.84      17.01      23.12
O       6.80      15.50      24.14
Cu       8.40      15.59      25.23
O       6.73      17.79      24.13
O      10.06      17.79      26.37
O      10.00      15.50      26.31
Cu       8.41      18.05      25.24
C       6.29      16.63      23.80
C       6.98      17.01      27.35
O       9.50      18.14      23.64
O       9.52      15.85      23.57
O       7.34      18.14      26.84
O       7.28      15.85      26.90
C      10.52      16.63      26.67
