16

C       9.24       6.85       4.02
C      10.64       5.01       3.09
C       8.33       5.21       2.35
C       9.90       2.18       0.70
H      11.47       5.38       3.69
C       9.40       5.67       3.13
C      10.81       3.89       2.28
H      11.76       3.36       2.25
C       9.73       3.41       1.51
H       7.38       5.73       2.39
C       8.50       4.08       1.55
H       7.67       3.70       0.95
O       8.92       1.76      -0.00
O      11.03       1.58       0.74
O      10.21       7.18       4.79
O       8.13       7.50       4.00
