224

Cu       9.90       4.88       5.45
Cu       9.53       2.96       2.55
Cu       5.54       6.16       5.45
Cu       7.38       6.77       2.55
Cu       6.62       1.74       5.45
Cu       5.16       3.02       2.56
Cu      -0.74      11.04       5.38
Cu      -2.19       9.76       8.27
Cu       2.55       7.90       5.38
Cu       2.18       9.82       8.28
Cu      -1.81       6.62       5.38
Cu       0.03       6.00       8.28
Cu      -2.55       7.91      16.21
Cu      -2.18       9.83      19.10
Cu       1.81       6.63      16.21
Cu      -0.03       6.01      19.11
Cu       0.74      11.04      16.21
Cu       2.19       9.76      19.10
Cu       8.09       1.75      16.28
Cu       9.55       3.03      13.39
Cu       4.81       4.88      16.28
Cu       5.18       2.97      13.38
Cu       9.17       6.16      16.28
Cu       7.33       6.78      13.38
Cu       7.33       4.24       4.30
Cu      -0.03       8.53       6.53
Cu       0.03       8.54      17.36
Cu       7.38       4.25      15.13
H      -1.19       6.12       0.15
H      -2.31       4.30      18.25
H      10.42       3.23      19.35
H      10.08       3.56       0.16
H       2.66       8.68       0.14
H       4.81       8.63      18.25
H       6.72       7.44      19.34
H       6.59       6.95       0.15
H      -1.49      10.76       0.14
H      -2.51      12.68      18.25
H       4.93       2.15      19.35
H       5.41       2.25       0.16
H       5.87       2.02      10.69
H       4.85       0.11      14.24
H      -2.42      10.64      13.14
H      -1.95      10.53      10.67
H       6.16       6.66      10.68
H       5.04       8.49      14.24
H       3.06       9.56      13.14
H       2.72       9.22      10.67
H      10.02       4.10      10.69
H      12.17       4.16      14.24
H      -0.64       5.35      13.15
H      -0.77       5.82      10.68
H       8.55       6.67      21.51
H       9.67       8.48       3.41
H      -3.06       9.55       2.31
H      -2.72       9.22      21.50
H       4.69       4.11      21.51
H       2.54       4.15       3.41
H       0.64       5.34       2.32
H       0.77       5.83      21.51
H       8.84       2.03      21.52
H       9.86       0.11       3.41
H       2.42      10.63       2.31
H       1.95      10.53      21.50
H       1.49      10.76      10.97
H       2.51      12.67       7.42
H       9.78       2.15       8.52
H       9.30       2.26      10.99
H       1.19       6.13      10.98
H       2.31       4.29       7.42
H       4.29       3.23       8.52
H       4.63       3.57      10.99
H      -2.66       8.68      10.97
H      -4.81       8.63       7.42
H       7.99       7.43       8.51
H       8.12       6.96      10.98
C      -1.85       5.44      21.29
C      11.72       5.03       1.79
C      11.82       4.81       0.35
C      -2.50       4.43      19.31
C      11.11       3.84      19.93
C      10.92       4.02      21.30
C       3.59       8.46      21.29
C       4.49       7.65       1.78
C       4.64       7.85       0.35
C       4.79       8.40      19.31
C       5.85       7.74      19.93
C       5.78       7.48      21.29
C      -1.75      11.70      21.29
C       5.84       0.08       1.78
C       5.60       0.11       0.35
C      -2.29      12.77      19.31
C       5.10       1.25      19.93
C       5.36       1.31      21.30
C       5.60       1.10      11.20
C      -1.51      12.69       9.05
C      -1.76      12.66      10.48
C       5.06       0.02      13.18
C      -2.25      11.54      12.56
C      -1.99      11.48      11.19
C       5.50       7.35      11.20
C       4.37       7.74       9.04
C       4.47       7.97      10.48
C       4.85       8.36      13.18
C       3.76       8.96      12.56
C       3.57       8.77      11.19
C      10.95       4.33      11.20
C      -2.86       5.12       9.05
C      -2.71       4.92      10.48
C      12.15       4.39      13.18
C      -1.50       5.05      12.56
C      -1.57       5.31      11.20
C       9.21       7.34       0.37
C      -4.37       7.75      19.87
C      -4.47       7.98      21.31
C       9.86       8.35       2.35
C      -3.76       8.95       1.73
C      -3.57       8.76       0.36
C       3.76       4.32       0.37
C       2.86       5.13      19.88
C       2.71       4.93      21.31
C       2.56       4.38       2.35
C       1.50       5.04       1.73
C       1.57       5.30       0.37
C       9.11       1.09       0.37
C       1.51      12.70      19.88
C       1.76      12.67      21.31
C       9.65       0.01       2.35
C       2.25      11.53       1.73
C       1.99      11.47       0.36
C       1.75      11.69      10.46
C       8.87       0.09      12.61
C       9.11       0.12      11.18
C       2.29      12.76       8.48
C       9.61       1.24       9.10
C       9.35       1.31      10.47
C       1.85       5.43      10.46
C       2.99       5.04      12.61
C       2.89       4.81      11.18
C       2.50       4.42       8.48
C       3.60       3.83       9.10
C       3.79       4.01      10.47
C      -3.59       8.45      10.46
C      10.22       7.66      12.61
C      10.07       7.86      11.18
C      -4.79       8.39       8.48
C       8.86       7.74       9.10
C       8.93       7.48      10.46
I       9.16       2.34       5.26
I       8.11       6.76       5.26
I       4.80       3.65       5.27
I      -2.56       9.13       5.56
I       1.80      10.43       5.56
I       0.75       6.01       5.57
I      -1.80      10.44      16.39
I      -0.75       6.02      16.40
I       2.56       9.13      16.39
I       9.91       3.66      16.10
I       5.55       2.35      16.09
I       6.60       6.77      16.09
I       7.37       4.25       1.56
I       0.01       8.53       9.27
I      -0.01       8.54      20.10
I       7.34       4.26      12.39
N      11.10       4.98       3.84
N      -2.60       5.85       3.72
N      -2.19       5.90       2.45
N      10.85       4.44       2.63
N      -1.64       5.24      19.98
N       4.85       7.13       3.83
N       3.60       7.60       3.72
N       3.35       7.93       2.45
N       5.44       7.17       2.63
N       3.66       8.75      19.97
N       6.12       0.65       3.84
N      -1.01      12.10       3.72
N      -1.18      11.72       2.45
N       5.78       1.14       2.63
N      -2.04      11.62      19.97
N      -1.23      12.13       6.99
N       6.35       0.67       7.11
N       6.18       1.05       8.38
N      -1.57      11.63       8.20
N       5.32       1.18      12.52
N       3.74       7.79       6.99
N       4.76       6.93       7.11
N       5.17       6.88       8.38
N       3.49       8.34       8.20
N       5.72       7.56      12.51
N      -2.51       5.65       7.00
N      10.96       5.18       7.11
N      10.71       4.84       8.38
N      -1.91       5.60       8.20
N      11.02       4.04      12.51
N      -3.74       7.80      17.82
N       9.96       6.94      17.94
N       9.54       6.88      19.21
N      -3.49       8.35      19.03
N       8.99       7.55       1.68
N       2.51       5.66      17.83
N       3.75       5.19      17.94
N       4.00       4.85      19.21
N       1.91       5.61      19.03
N       3.69       4.03       1.68
N       1.23      12.14      17.82
N       8.36       0.68      17.94
N       8.53       1.06      19.21
N       1.57      11.64      19.03
N       9.39       1.17       1.69
N       8.59       0.66      14.67
N       1.01      12.11      14.55
N       1.18      11.73      13.28
N       8.93       1.15      13.46
N       2.04      11.61       9.14
N       3.61       4.99      14.67
N       2.60       5.86      14.55
N       2.19       5.91      13.27
N       3.86       4.44      13.46
N       1.64       5.23       9.15
N       9.86       7.13      14.66
N      -3.60       7.60      14.55
N      -3.35       7.94      13.28
N       9.27       7.18      13.46
N      -3.66       8.74       9.15
