504

H       3.73      19.10      20.32
H       1.64      19.97      19.56
H       5.78      22.02      18.07
H       3.70      22.90      17.30
H       2.04      24.78      15.26
H       1.96      26.48      13.60
H      23.60      24.53      15.18
H      23.53      26.23      13.54
H      22.09      22.46      17.01
H      20.04      21.57      17.83
H      22.17      19.38      20.76
H      24.22      20.27      19.94
H       3.68      48.69      48.01
H       1.60      48.05      48.98
H       5.75      46.47      50.94
H       3.68      45.82      51.92
H       2.00      43.94      53.94
H       1.92      42.30      55.65
H      23.60      44.47      54.26
H      23.52      42.82      55.96
H      22.10      46.44      52.31
H      20.06      47.36      51.51
H      22.15      49.30      48.39
H      24.20      48.38      49.19
H      16.62      48.72      19.37
H      14.53      49.49      20.22
H      18.65      50.98      22.30
H      16.57      51.75      23.15
H      14.89      53.76      25.06
H      14.81      55.42      26.75
H      10.69      53.97      24.66
H      10.61      55.61      26.36
H       9.18      52.04      22.68
H       7.14      51.20      21.79
H       9.27      48.26      19.64
H      11.32      49.10      20.52
H      16.57      21.04      48.96
H      14.50      20.07      48.31
H      18.66      18.13      46.73
H      16.59      17.15      46.07
H      14.94      15.08      44.22
H      14.87      13.37      42.58
H      10.73      14.87      44.61
H      10.66      13.17      42.96
H       9.22      16.74      46.65
H       7.18      17.53      47.59
H       9.26      20.63      49.55
H      11.32      19.85      48.63
H      21.93      48.64      21.46
H      24.05      48.00      20.58
H      19.99      46.65      18.29
H      22.10      45.99      17.40
H      23.88      43.96      15.55
H      24.06      42.24      13.93
H       2.29      44.45      15.49
H       2.47      42.75      13.86
H       3.67      45.65      18.10
H       5.69      46.40      19.10
H       3.54      49.27      21.32
H       1.50      48.53      20.32
H      21.96      19.04      48.78
H      24.07      19.90      49.48
H      19.99      21.83      51.26
H      22.09      22.70      51.96
H      23.84      24.69      53.83
H      23.99      26.50      55.35
H       2.28      24.49      53.66
H       2.42      26.29      55.20
H       3.62      23.11      51.16
H       5.64      22.40      50.12
H       3.53      19.34      48.11
H       1.50      20.04      49.15
H       9.05      21.18      20.39
H      11.16      20.30      21.03
H       7.11      18.02      22.40
H       9.22      17.13      23.05
H      11.00      15.30      25.10
H      11.18      13.70      26.83
H      15.20      15.25      24.62
H      15.38      13.63      26.34
H      16.58      17.82      23.36
H      18.60      18.83      22.61
H      16.43      21.06      19.76
H      14.40      20.06      20.51
H       9.06      48.51      50.00
H      11.17      49.21      49.14
H       7.08      50.98      47.21
H       9.19      51.69      46.34
H      10.93      53.58      44.37
H      11.09      55.12      42.57
H      15.16      53.42      44.57
H      15.30      54.96      42.79
H      16.50      50.89      45.91
H      18.52      49.85      46.62
H      16.43      47.85      49.69
H      14.39      48.88      48.99
H      25.75      38.37      13.10
H      25.78      36.27      11.99
H      24.87      40.31       9.46
H      24.89      38.21       8.33
H      24.67      36.49       5.67
H      24.57      36.44       3.28
H      25.72      32.39       5.69
H      25.61      32.36       3.30
H       0.01      30.83       8.56
H       0.32      28.85       9.84
H       0.66      31.15      13.36
H       0.36      33.14      12.09
H       1.22      28.74      13.26
H      24.38      33.74       1.36
H      24.61      41.36      11.79
H      25.42      30.53      56.09
H      25.57      32.61      57.24
H      25.13      28.49      59.77
H      25.27      30.57      60.94
H       0.74      32.19      63.54
H       0.91      32.19      65.92
H      25.71      36.35      63.62
H       0.09      36.32      66.01
H       0.21      37.98      60.73
H       0.40      39.98      59.45
H       0.32      37.72      55.89
H       0.15      35.72      57.15
H       1.00      40.08      55.96
H       1.24      34.87       1.45
H      24.62      27.46      57.45
H      12.50      55.86      38.55
H      12.66      57.00      36.47
H      12.24      59.55      40.58
H      12.39      60.71      38.50
H      13.64      63.31      36.87
H      13.81      65.69      36.87
H      12.82      63.37      32.72
H      12.99      65.76      32.73
H      13.10      60.47      31.10
H      13.29      59.17      29.10
H      13.31      55.63      31.39
H      13.13      56.91      33.38
H      13.96      55.71      29.01
H      14.13       1.20      34.18
H      11.71      57.22      41.62
H      12.88      12.87      30.72
H      12.90      11.75      32.81
H      11.98       9.24      28.77
H      11.99       8.10      30.87
H      11.78       5.43      32.57
H      11.68       3.05      32.61
H      12.82       5.44      36.68
H      12.71       3.05      36.69
H      12.92       8.30      38.24
H      13.23       9.57      40.24
H      13.46      13.11      37.96
H      13.17      11.85      35.96
H      14.06      13.01      40.35
H      11.49       1.11      35.31
H      11.73      11.57      27.72
C       1.20      22.03      17.87
C      24.60      21.99      17.89
C      25.76      23.47      16.41
C      23.37      21.46      18.39
C      23.35      20.56      19.48
C      22.14      20.03      19.97
C      20.92      20.40      19.37
C      20.92      21.29      18.28
C      22.13      21.82      17.80
C       2.45      21.53      18.35
C       2.50      20.42      19.24
C       3.73      19.90      19.69
C       4.94      20.48      19.27
C       4.91      21.59      18.39
C       3.68      22.10      17.94
C      25.72      24.48      15.40
C       1.12      25.07      14.91
C       1.08      26.09      13.93
C      25.63      26.54      13.41
C      24.45      25.93      13.88
C      24.49      24.93      14.86
C       6.16      19.97      19.70
C      25.57      27.60      12.45
C      19.73      19.88      19.85
C       1.18      46.52      51.17
C      24.59      46.75      51.31
C      25.74      45.31      52.84
C      23.37      47.31      50.84
C      23.34      48.16      49.70
C      22.14      48.70      49.22
C      20.92      48.41      49.88
C      20.93      47.58      51.02
C      22.14      47.04      51.49
C       2.42      46.86      50.56
C       2.46      47.69      49.41
C       3.68      48.07      48.82
C       4.90      47.63      49.38
C       4.88      46.79      50.51
C       3.65      46.41      51.09
C      25.70      44.38      53.91
C       1.09      43.73      54.36
C       1.05      42.75      55.37
C      25.60      42.38      55.97
C      24.44      43.06      55.56
C      24.48      44.04      54.55
C       6.11      48.06      48.85
C      25.54      41.32      56.92
C      19.73      48.94      49.40
C      14.08      51.19      22.27
C      11.69      51.17      22.22
C      12.84      52.66      23.69
C      10.47      50.66      21.69
C      10.45      49.56      20.80
C       9.25      49.06      20.28
C       8.02      49.65      20.64
C       8.02      50.75      21.52
C       9.22      51.24      22.04
C      15.33      50.70      21.78
C      15.39      49.81      20.68
C      16.62      49.36      20.17
C      17.83      49.78      20.76
C      17.79      50.66      21.86
C      16.56      51.11      22.36
C      12.80      53.68      24.68
C      13.98      54.14      25.32
C      13.93      55.12      26.33
C      12.70      55.68      26.74
C      11.52      55.25      26.09
C      11.57      54.26      25.09
C      19.05      49.35      20.25
C      12.63      56.62      27.80
C       6.83      49.16      20.12
C      14.09      17.89      46.76
C      11.71      17.74      46.98
C      12.87      16.23      45.53
C      10.49      18.21      47.54
C      10.46      19.34      48.40
C       9.25      19.81      48.95
C       8.03      19.15      48.65
C       8.05      18.02      47.81
C       9.26      17.56      47.26
C      15.32      18.50      47.12
C      15.36      19.65      47.95
C      16.58      20.23      48.34
C      17.80      19.68      47.90
C      17.78      18.55      47.05
C      16.56      17.98      46.67
C      12.84      15.16      44.59
C      14.03      14.69      43.98
C      13.99      13.68      43.00
C      12.76      13.11      42.59
C      11.58      13.55      43.23
C      11.62      14.56      44.20
C      19.01      20.20      48.34
C      12.70      12.14      41.54
C       6.84      19.61      49.18
C      24.57      46.54      18.36
C       1.17      46.59      18.47
C       0.08      45.31      16.77
C       2.37      47.01      19.10
C       2.37      48.06      20.06
C       3.57      48.50      20.66
C       4.80      47.90      20.31
C       4.81      46.85      19.37
C       3.61      46.41      18.78
C      23.30      46.93      18.89
C      23.21      47.70      20.08
C      21.96      48.08      20.61
C      20.77      47.70      19.96
C      20.84      46.93      18.78
C      22.09      46.55      18.26
C       0.17      44.39      15.69
C      24.80      43.74      15.18
C      24.91      42.73      14.21
C       0.39      42.33      13.71
C       1.54      43.01      14.18
C       1.43      44.02      15.15
C      19.54      48.11      20.46
C       0.53      41.19      12.87
C       5.99      48.38      20.83
C      24.57      21.92      51.20
C       1.15      22.05      50.93
C       0.06      23.39      52.58
C       2.35      21.65      50.27
C       2.36      20.56      49.35
C       3.55      20.14      48.74
C       4.77      20.80      49.01
C       4.77      21.90      49.90
C       3.58      22.32      50.51
C      23.31      21.39      50.80
C      23.22      20.32      49.87
C      21.98      19.81      49.46
C      20.78      20.36      49.95
C      20.84      21.41      50.88
C      22.09      21.92      51.30
C       0.15      24.40      53.58
C      24.77      24.99      54.13
C      24.86      26.06      55.05
C       0.33      26.57      55.45
C       1.49      25.95      54.93
C       1.40      24.88      54.02
C      19.56      19.87      49.53
C       0.43      27.74      56.25
C       5.96      20.35      48.47
C      11.69      18.09      22.50
C      14.07      18.21      22.45
C      12.98      16.52      23.74
C      15.27      18.83      22.01
C      15.27      19.80      20.97
C      16.46      20.39      20.53
C      17.70      20.05      21.12
C      17.71      19.10      22.17
C      16.52      18.51      22.61
C      10.42      18.62      22.11
C      10.32      19.80      21.33
C       9.08      20.33      20.95
C       7.88      19.69      21.34
C       7.96      18.51      22.12
C       9.21      17.99      22.50
C      13.08      15.45      24.67
C      11.93      14.93      25.32
C      12.03      13.97      26.34
C      13.30      13.48      26.75
C      14.44      13.95      26.07
C      14.33      14.91      25.05
C       6.66      20.18      20.93
C      13.43      12.64      27.90
C      18.88      20.58      20.64
C      11.66      50.93      47.12
C      14.03      50.66      46.98
C      12.94      52.32      45.66
C      15.23      50.00      47.38
C      15.25      49.08      48.46
C      16.44      48.47      48.88
C      17.66      48.75      48.22
C      17.65      49.63      47.11
C      16.45      50.24      46.70
C      10.40      50.52      47.65
C      10.32      49.60      48.72
C       9.08      49.18      49.23
C       7.88      49.68      48.69
C       7.94      50.61      47.63
C       9.19      51.03      47.12
C      13.03      53.33      44.66
C      11.86      53.89      44.07
C      11.95      54.81      43.01
C      13.21      55.22      42.51
C      14.37      54.70      43.12
C      14.28      53.78      44.18
C       6.66      49.25      49.18
C      13.31      56.02      41.34
C      18.85      48.22      48.68
C      25.40      35.76       9.37
C      25.70      33.39       9.44
C      25.33      34.49       7.35
C       0.14      32.20      10.19
C       0.35      32.25      11.59
C       0.53      31.07      12.35
C       0.48      29.80      11.73
C       0.32      29.75      10.33
C       0.15      30.92       9.57
C      25.35      37.02      10.04
C      25.59      37.11      11.43
C      25.59      38.35      12.09
C      25.35      39.55      11.37
C      25.06      39.46      10.00
C      25.08      38.22       9.34
C      25.21      34.45       5.93
C      24.87      35.61       5.19
C      24.80      35.59       3.79
C      25.08      34.40       3.08
C      25.40      33.23       3.80
C      25.46      33.25       5.21
C      25.61      33.05      59.89
C       0.07      35.43      59.83
C       0.16      34.27      61.92
C       0.15      36.63      59.08
C       0.19      36.60      57.66
C       0.30      37.78      56.91
C       0.34      39.05      57.54
C       0.32      39.09      58.95
C       0.22      37.90      59.71
C      25.45      31.81      59.21
C      25.47      31.76      57.80
C      25.40      30.53      57.11
C      25.30      29.31      57.83
C      25.21      29.36      59.23
C      25.30      30.59      59.91
C       0.31      34.27      63.33
C       0.61      33.08      64.04
C       0.72      33.07      65.44
C       0.52      34.25      66.17
C       0.25      35.46      65.48
C       0.15      35.47      64.08
C      12.72      59.66      36.03
C      12.99      59.59      33.65
C      13.06      61.68      34.80
C      13.08      58.82      32.45
C      13.15      57.41      32.49
C      13.26      56.65      31.32
C      13.28      57.27      30.05
C      13.23      58.69      30.00
C      13.13      59.45      31.18
C      12.56      58.98      37.27
C      12.56      57.56      37.32
C      12.48      56.89      38.55
C      12.39      57.60      39.77
C      12.31      59.01      39.72
C      12.41      59.69      38.49
C      13.21      63.09      34.79
C      13.51      63.80      35.98
C      13.61      65.20      35.99
C      13.41      65.93      34.80
C      13.14      65.24      33.60
C      13.05      63.83      33.60
C      12.51       9.13      33.32
C      12.79       9.19      35.69
C      12.43       7.11      34.58
C      13.00       9.94      36.89
C      13.18      11.35      36.85
C      13.36      12.09      38.03
C      13.34      11.46      39.30
C      13.20      10.06      39.34
C      13.03       9.31      38.16
C      12.46       9.80      32.06
C      12.71      11.20      31.98
C      12.71      11.86      30.74
C      12.47      11.15      29.54
C      12.17       9.77      29.62
C      12.19       9.11      30.86
C      12.31       5.69      34.62
C      11.97       4.96      33.45
C      11.91       3.55      33.47
C      12.19       2.84      34.65
C      12.50       3.56      35.83
C      12.56       4.96      35.81
N       0.02      21.55      18.34
N      24.61      22.95      16.92
N       1.15      22.99      16.91
N       0.00      47.05      50.74
N      24.60      45.88      52.36
N       1.12      45.65      52.22
N      12.90      50.71      21.79
N      11.70      52.14      23.16
N      14.02      52.16      23.22
N      12.91      18.31      47.29
N      11.73      16.71      46.10
N      14.03      16.85      45.88
N      25.73      46.96      18.93
N       1.20      45.76      17.40
N      24.67      45.71      17.29
N      25.72      21.54      50.59
N       1.18      22.97      51.92
N      24.66      22.85      52.19
N      12.85      18.66      22.07
N      14.10      17.14      23.28
N      11.79      17.03      23.33
N      12.82      50.31      47.49
N      14.06      51.66      46.07
N      11.76      51.92      46.19
N      25.62      34.60      10.05
N      25.55      33.36       8.09
N      25.26      35.67       8.02
N       0.62      28.68      12.50
N      25.06      34.44       1.68
N      25.34      40.75      12.02
N      25.67      34.23      59.22
N       0.20      35.42      61.19
N      25.76      33.10      61.24
N       0.48      40.18      56.78
N       0.55      34.18       1.11
N      25.28      28.12      57.16
N      12.80      58.98      34.85
N      13.12      60.94      33.66
N      12.87      61.01      35.97
N      13.40      56.51      28.92
N      13.44       0.87      34.87
N      12.38      56.94      40.96
N      12.72       9.81      34.48
N      12.64       7.84      35.71
N      12.37       7.78      33.41
N      13.49      12.23      40.43
N      12.17       1.43      34.61
N      12.46      11.79      28.33
O      19.47      18.73      19.51
O      24.52      27.60      11.59
O       6.77      19.29      18.88
O      19.51      50.11      49.70
O      24.56      41.38      57.86
O       6.67      47.29      48.08
O       6.57      49.49      18.97
O      11.63      57.53      27.77
O      19.67      50.17      19.58
O       6.62      19.31      50.35
O      11.67      11.25      41.56
O      19.57      20.98      47.58
O       6.24      48.05      21.99
O       1.67      40.47      12.96
O      18.93      47.29      21.13
O       6.17      20.65      47.31
O       1.52      28.53      56.05
O      19.00      19.08      50.28
O      19.14      21.73      20.98
O      14.58      12.75      28.61
O       6.05      20.86      21.75
O      19.07      47.05      48.39
O      14.40      55.83      40.55
O       6.10      50.02      49.96
