68

O       4.00       2.15       0.40
H       3.67       4.72       0.83
O       4.23      17.89      -1.33
O       4.14      21.13       0.20
O       5.49       3.06      -1.07
H       0.79      14.86      -3.52
O       5.28      20.30      -1.53
H       0.19      11.64      -5.84
H       5.06       7.16      -2.69
H      -3.23      11.49      -8.66
H       3.27      11.14       0.34
H      -2.67      11.55      -2.64
H      -0.37       9.12      -4.23
H       2.63      19.02      -0.56
H       3.84      18.53       0.63
H      -3.86      13.08      -8.15
H      -0.68      14.00      -4.06
H       1.07      14.75      -0.17
H       2.09      16.98       0.15
H       5.01      16.07      -2.89
H      -4.53      11.52      -4.30
H       4.01      13.80      -3.17
H      -1.63      11.63      -7.49
H       2.10       6.31       0.33
H       2.65       4.21      -0.53
H      -0.93       8.86      -2.57
H       4.01       9.38      -3.08
H       3.93      12.60      -0.43
H       4.37      10.98      -1.01
H       1.05       8.50      -0.09
H      -0.55      14.60      -2.40
H       0.65       8.23      -3.07
C       2.45      14.12      -1.70
C       1.93       8.22      -0.66
C       0.61      10.37      -2.76
C       0.01      14.14      -3.23
C      -4.08      12.00      -8.16
C      -1.10      11.59      -4.12
C       2.51      16.29      -0.59
C       3.64       6.59      -1.17
C       4.19       7.47      -2.12
C       1.77      10.39      -1.96
C       4.15      15.76      -2.30
C       0.05      11.60      -3.17
C       3.59       8.71      -2.33
C      -5.25      11.71      -9.07
C       3.55      11.59      -0.62
C       0.62      12.83      -2.79
C       1.94      15.03      -0.76
C      -2.44      11.55      -3.70
C       3.61      16.67      -1.38
C      -3.49      11.54      -4.63
C      -0.85      11.61      -5.50
C       3.71      18.86      -0.41
C      -0.03       9.07      -3.18
C       3.58      14.50      -2.45
C      -3.21      11.56      -6.00
C       2.44       9.10      -1.62
C       2.52       6.97      -0.42
C       3.69       4.40      -0.22
C       4.42      20.18      -0.60
C      -1.88      11.60      -6.44
C       2.36      11.61      -1.56
C       1.79      12.82      -1.99
C       4.47       3.09      -0.31
O      -5.15      12.22     -10.21
O       4.29       5.39      -1.06
O      -4.31      11.50      -6.86
