16

H      11.21      21.22       8.73
H      10.71      18.78       5.24
O       8.72      19.05       6.50
C       9.35      19.87       7.26
C      10.82      19.98       7.02
C      11.65      20.73       7.87
C      13.02      20.83       7.60
C      11.37      19.34       5.89
C      12.73      19.43       5.63
C      15.03      20.23       6.21
C      13.56      20.18       6.49
O       8.83      20.59       8.18
O      15.71      21.11       6.84
O      15.48      19.38       5.37
H      13.17      18.94       4.77
H      13.67      21.41       8.25
