16

C       0.69      18.44      19.26
C      -2.05      18.63      18.72
C       2.16      18.38      19.53
H      -1.66      17.39      17.01
H       0.30      19.67      20.97
H       0.80      17.21      17.49
O      -4.04      18.03      17.57
C      -0.14      19.18      20.11
C      -3.52      18.75      18.48
H      -2.16      19.84      20.50
C      -1.22      17.88      17.87
C       0.14      17.78      18.14
C      -1.50      19.27      19.85
O       2.84      17.50      18.91
O       2.61      19.24      20.38
O      -4.15      19.57      19.24
