16

C       3.52       5.88      20.13
C       2.05       5.76      19.89
C       1.22       5.01      20.74
C      -0.14       4.91      20.47
C       1.50       6.40      18.76
C       0.14       6.31      18.50
C      -2.16       5.51      19.08
C      -0.69       5.57      19.36
H       1.66       4.52      21.61
O       4.04       5.16      21.05
H       2.16       6.97      18.11
O       4.15       6.70      19.37
H      -0.80       4.34      21.12
H      -0.30       6.80      17.64
O      -2.84       4.63      19.71
O      -2.61       6.36      18.24
