16

H      24.08      21.22       4.14
C      23.69      19.98       5.85
C      24.52      20.73       5.00
C      25.89      20.83       5.27
C      22.22      19.87       5.61
C      24.24      19.34       6.98
O      21.70      20.59       4.69
O      21.60      19.05       6.37
H      23.59      18.78       7.63
C      25.61      19.43       7.24
H      26.55      21.41       4.62
C      26.44      20.18       6.39
C      27.90      20.23       6.66
O      28.58      21.11       6.03
H      26.05      18.94       8.10
O      28.35      19.38       7.51
