16

C      16.39       6.99       5.61
C      14.92       7.11       5.85
C      14.09       7.86       5.00
C      12.73       7.96       5.27
C      14.37       6.47       6.98
C      13.01       6.56       7.24
C      10.71       7.36       6.66
C      12.18       7.30       6.39
H      14.53       8.35       4.14
O      16.91       7.72       4.69
H      15.03       5.91       7.63
O      17.02       6.17       6.37
H      12.07       8.53       4.62
H      12.57       6.07       8.10
O      10.03       8.24       6.03
O      10.26       6.51       7.51
