24

H       6.90       6.48       8.08
H       4.40       9.58       7.52
H       4.89       9.46       5.28
H       7.54       6.77       3.62
H      10.03       3.68       4.19
H       9.55       3.80       6.43
C       5.33       8.11       9.54
C       6.75       7.11       6.15
C       6.49       7.11       7.53
C       5.61       8.06       8.06
C       5.00       8.94       7.20
C       5.31       8.86       5.85
C       9.10       5.14       2.16
C       7.69       6.14       5.56
C       7.94       6.15       4.18
C       8.83       5.20       3.65
C       9.43       4.31       4.51
C       9.12       4.40       5.85
N       6.16       7.98       5.32
N       8.27       5.28       6.39
O       5.81       7.21      10.25
O       4.63       9.07       9.96
O       8.62       6.04       1.46
O       9.81       4.18       1.74
