552

H       4.83       0.33       7.48
H       3.34       0.34       2.06
H      20.53       0.64      26.51
H      18.90       0.11      21.07
H      21.69       0.75      28.70
H      24.86       0.83      25.94
H       0.33       4.82       7.49
H       0.40       3.37       1.95
H       0.27      19.13      20.78
H       0.55      20.55      26.41
H       0.10      13.02      16.41
H       1.01      31.17      35.20
H       0.95      15.47      16.51
H       1.06      24.80      30.07
H       1.63       3.53       5.99
H       3.31       7.80       7.52
H       4.61       6.51       6.02
H       6.42       4.69       6.13
H       7.69       3.41       7.67
H       3.52       1.63       5.98
H       4.64       1.66       3.54
H       1.67       4.66       3.49
H       3.49       6.45       3.46
H       6.55       3.57       3.64
H       7.87       4.87       2.15
H       4.79       7.74       1.96
H      23.87       3.12      25.78
H      22.58       4.41      24.28
H      19.24       1.95      25.01
H      17.26       3.76      24.26
H      15.97       5.07      25.74
H      19.33       7.50      26.51
H      20.62       6.19      25.01
H      19.60       6.73      22.53
H      20.92       8.01      21.03
H      23.36       4.66      20.28
H      22.05       3.37      21.81
H      20.23       1.40      22.56
H      17.83       4.78      21.78
H      16.53       3.50      20.25
H       7.97      20.79      20.93
H       6.67      19.51      22.43
H       4.73      23.44      20.38
H       3.43      22.15      21.89
H       1.54      20.41      22.32
H       3.42      16.34      20.51
H       4.72      17.66      21.99
H       3.66      17.36      24.43
H       4.97      16.08      25.93
H       7.56      19.36      26.47
H       6.27      20.63      24.92
H       4.45      22.55      24.37
H       1.85      19.28      24.88
H       3.12      23.84      25.84
H      16.40      19.30       1.79
H      17.69      20.59       3.32
H      19.03      16.05       2.30
H      20.35      17.35       3.78
H      22.17      19.26       3.31
H      23.47      20.52       1.77
H      20.82      23.77       2.21
H      19.50      22.49       3.71
H      20.55      22.25       6.16
H      19.24      23.57       7.63
H      16.13      20.73       7.41
H      17.41      19.45       5.88
H      19.29      17.70       6.26
H      22.51      20.38       5.79
H      23.80      19.10       7.30
H      20.58      16.41       7.77
H      28.86       8.05      11.73
H      27.55       9.34      13.22
H      31.26      11.43      10.93
H      29.97      12.71      12.47
H      28.19      14.67      13.23
H      26.88      15.96      11.74
H      24.44      12.61      10.96
H      25.74      11.32      12.48
H      25.21      12.33      14.97
H      23.93      11.04      16.47
H      27.27       8.56      17.18
H      28.56       9.88      15.68
H      30.54      11.71      14.93
H      27.16      14.10      15.72
H      28.44      15.40      17.23
H      26.98       0.04      30.25
H      28.29      30.46      31.74
H      24.37      28.50      29.68
H      25.67      27.21      31.20
H      27.42      25.30      31.65
H      28.71      24.02      30.13
H      31.44      27.21      29.75
H      30.13      28.51      31.26
H      30.47      27.45      33.70
H       0.03      28.77      35.19
H      28.48      31.36      35.74
H      27.20      30.05      34.23
H      25.28      28.25      33.69
H      28.54      25.63      34.18
H      27.26      24.31      35.68
H      23.99      26.93      35.17
H      12.73      15.71      35.50
H      11.44      14.43      33.98
H      15.75      12.76      35.42
H      14.44      11.47      33.92
H      12.54       9.56      33.91
H      11.24       8.25      35.40
H       8.38      11.33      35.61
H       9.64      12.62      34.07
H       9.52      11.50      31.56
H       8.21      12.81      30.07
H      11.28      15.70      29.93
H      12.58      14.40      31.43
H      14.39      12.59      31.43
H      11.41       9.61      31.46
H      12.71       8.30      29.97
H      15.66      11.30      29.89
H      11.11      23.94      16.51
H      12.41      25.25      15.01
H       8.55      27.23      17.18
H       9.83      28.53      15.65
H      11.58      30.46      15.11
H      12.88       0.01      16.63
H      15.55      28.51      17.07
H      14.24      27.22      15.57
H      14.63      28.25      13.13
H      15.90      26.93      11.64
H      12.57      24.42      11.01
H      11.30      25.73      12.53
H       9.38      27.52      13.17
H      12.68      30.07      12.58
H      11.38      31.39      11.08
H       8.08      28.83      11.69
H      29.63      31.15       0.78
H      26.13       8.63      19.36
H      22.93       8.77      16.64
H      10.31      15.49      27.53
H       7.05      15.17      30.17
H      13.78      24.70       8.72
H      16.80      24.46      11.63
H       5.82      23.30      18.14
H       9.04      23.09      20.83
H      21.64      16.53      10.03
H      24.89      16.82       7.39
H      18.12       7.31      28.72
H      15.05       7.44      25.86
H      29.70      15.13      19.46
H      26.15      24.45       0.70
H      22.96      24.60      35.22
H      10.23      31.19       8.82
H       7.10      31.20      11.63
H       5.80       7.44      36.78
H       8.98       7.31       2.28
H      13.61      31.49      19.22
H      16.96      30.85      16.78
H      29.49      24.34      27.52
H       2.41       7.61       9.94
H      30.82       7.13       7.40
H      13.67      15.45       0.69
H      16.94      15.14      35.31
C       0.92       0.91       1.00
C       2.97       1.25       2.35
C       5.18       1.25       7.20
C      18.66       1.09      21.22
C      31.34       0.51       1.37
C       1.43       0.50      36.97
C       8.52       0.54       8.23
C       7.20       0.94       8.59
C       6.69       0.53       9.85
C      23.14       0.92      27.17
C      22.63       0.47      28.41
C      24.47       0.55      26.84
C      15.38       0.68      19.91
C      16.76       0.89      19.64
C      17.34       0.31      18.48
C       1.22       5.21       7.17
C       1.19      18.78      21.06
C       0.64      31.43      36.12
C       0.91      16.78      19.63
C       0.60      15.67      17.46
C       0.88      23.12      27.15
C       0.65      24.44      29.20
C       0.87       7.24       8.53
C       0.65       8.58      10.60
C       6.48       6.46       1.93
C       6.95       5.23       2.44
C       6.18       4.46       3.33
C       4.92       4.91       3.81
C       4.42       6.11       3.22
C       5.18       6.87       2.31
C       4.07       4.08       4.78
C       3.25       3.25       3.78
C       2.04       3.74       3.22
C       1.28       2.98       2.31
C       1.72       1.71       1.88
C       3.73       2.03       3.25
C       4.88       3.26       5.78
C       3.22       4.92       5.74
C       1.99       4.44       6.27
C       1.67       6.46       7.63
C       2.94       6.90       7.20
C       3.70       6.14       6.29
C       6.07       3.76       6.38
C       6.83       3.01       7.30
C       6.41       1.72       7.70
C       4.42       2.01       6.29
C      17.56       1.67      20.54
C      17.29       3.04      20.75
C      18.06       3.79      21.66
C      19.11       3.21      22.43
C      19.42       1.85      22.12
C      19.93       4.07      23.40
C      20.74       4.93      22.43
C      21.81       4.36      21.68
C      22.58       5.11      20.77
C      22.28       6.47      20.54
C      21.18       7.04      21.20
C      20.41       6.28      22.11
C      19.06       4.88      24.38
C      20.79       3.26      24.38
C      22.13       3.59      24.70
C      22.90       2.83      25.60
C      22.35       1.72      26.28
C      20.98       1.43      26.05
C      20.22       2.20      25.14
C      17.71       4.57      24.68
C      16.94       5.34      25.57
C      17.50       6.44      26.26
C      18.87       6.71      26.04
C      19.63       5.94      25.14
C       1.68      22.34      26.25
C       1.35      21.00      25.96
C       2.13      20.24      25.05
C       3.24      20.80      24.37
C       3.61      22.12      24.74
C       2.84      22.88      25.64
C       4.08      19.94      23.41
C       4.88      19.10      24.40
C       5.99      19.66      25.10
C       6.76      18.92      26.02
C       6.42      17.58      26.32
C       5.26      17.04      25.72
C       4.50      17.79      24.80
C       3.23      19.12      22.42
C       4.94      20.75      22.43
C       6.25      20.36      22.05
C       7.03      21.12      21.15
C       6.51      22.27      20.53
C       5.16      22.62      20.81
C       4.40      21.86      21.72
C       1.95      19.54      21.98
C       1.70      17.58      20.52
C       3.01      17.19      20.89
C       3.77      17.97      21.78
C      22.34      17.60       7.67
C      22.86      18.77       7.07
C      22.09      19.53       6.16
C      20.79      19.13       5.76
C      20.25      18.00       6.45
C      21.01      17.24       7.35
C      19.94      19.94       4.78
C      19.09      20.76       5.75
C      17.81      20.33       6.21
C      17.05      21.09       7.12
C      17.54      22.31       7.64
C      18.84      22.70       7.26
C      19.61      21.93       6.38
C      20.75      20.77       3.78
C      19.11      19.08       3.81
C      17.98      19.62       3.14
C      17.21      18.87       2.23
C      17.56      17.54       1.92
C      18.73      17.00       2.51
C      19.49      17.77       3.41
C      21.88      20.21       3.11
C      22.65      20.96       2.20
C      22.30      22.29       1.87
C      21.12      22.82       2.44
C      20.36      22.07       3.35
C      30.28      14.37      16.95
C      28.90      14.63      16.75
C      28.15      13.86      15.84
C      28.73      12.81      15.07
C      30.08      12.51      15.36
C      30.85      13.28      16.25
C      27.86      12.00      14.09
C      27.00      11.19      15.06
C      27.57      10.13      15.82
C      26.82       9.35      16.72
C      25.45       9.63      16.96
C      24.90      10.75      16.29
C      25.66      11.51      15.38
C      27.05      12.87      13.12
C      28.67      11.15      13.11
C      28.35       9.79      12.79
C      29.12       9.03      11.89
C      30.21       9.60      11.21
C      30.50      10.97      11.43
C      29.73      11.72      12.34
C      27.38      14.22      12.81
C      26.62      14.99      11.90
C      25.51      14.42      11.23
C      25.22      13.06      11.46
C      25.99      12.30      12.36
C      25.47      25.46      35.55
C      26.82      25.14      35.26
C      27.58      25.91      34.36
C      27.03      27.03      33.68
C      25.71      27.40      34.06
C      24.94      26.62      34.95
C      27.88      27.86      32.71
C      28.72      28.67      33.70
C      28.17      29.77      34.40
C      28.92      30.54      35.31
C      30.27      30.22      35.59
C      30.81      29.07      34.97
C      30.04      28.30      34.08
C      28.69      27.01      31.72
C      27.07      28.72      31.73
C      27.45      30.04      31.35
C      26.69      30.81      30.45
C      25.53      30.27      29.84
C      25.18      28.94      30.13
C      25.95      28.17      31.03
C      28.28      25.72      31.29
C      29.03      24.96      30.37
C      30.23      25.47      29.82
C      30.61      26.79      30.17
C      29.83      27.55      31.06
C      14.33       9.65      29.81
C      13.08       9.20      30.27
C      12.32       9.97      31.18
C      12.81      11.19      31.72
C      14.03      11.68      31.16
C      14.78      10.92      30.24
C      12.00      12.02      32.72
C      11.15      12.86      31.76
C      11.65      14.06      31.18
C      10.89      14.82      30.27
C       9.60      14.41      29.88
C       9.12      13.18      30.38
C       9.89      12.41      31.26
C      11.18      11.18      33.72
C      12.84      12.85      33.69
C      12.36      14.07      34.25
C      13.11      14.82      35.16
C      14.39      14.39      35.58
C      14.85      13.14      35.10
C      14.08      12.38      34.21
C      11.64       9.94      34.22
C      10.89       9.17      35.12
C       9.66       9.64      35.63
C       9.24      10.93      35.23
C       9.99      11.69      34.31
C       9.59      30.27      11.26
C      10.94      30.58      11.52
C      11.70      29.80      12.42
C      11.15      28.70      13.13
C       9.81      28.35      12.78
C       9.04      29.13      11.90
C      12.01      27.88      14.09
C      12.85      27.07      13.10
C      12.28      25.99      12.37
C      13.03      25.22      11.46
C      14.38      25.52      11.20
C      14.94      26.65      11.84
C      14.18      27.42      12.74
C      12.83      28.73      15.07
C      11.20      27.01      15.07
C      11.57      25.68      15.42
C      10.82      24.91      16.32
C       9.68      25.45      16.96
C       9.35      26.79      16.70
C      10.11      27.56      15.80
C      12.43      30.03      15.48
C      13.19      30.79      16.40
C      14.37      30.27      16.97
C      14.73      28.94      16.64
C      13.95      28.18      15.75
C      31.06      31.03      36.47
C      30.56      31.45       0.48
C      24.66       8.84      17.85
C      25.18       8.37      19.08
C      24.41       7.59      19.98
C      23.08       7.25      19.64
C      22.53       7.70      18.41
C      23.33       8.48      17.54
C       8.80      15.20      28.99
C       9.34      15.72      27.79
C       8.57      16.50      26.90
C       7.21      16.80      27.22
C       6.66      16.30      28.43
C       7.46      15.51      29.29
C      15.17      24.71      10.31
C      14.69      24.36       9.03
C      15.46      23.57       8.14
C      16.75      23.10       8.54
C      17.23      23.44       9.83
C      16.44      24.24      10.69
C       7.30      23.06      19.63
C       6.78      23.54      18.41
C       7.55      24.33      17.52
C       8.89      24.66      17.85
C       9.44      24.18      19.07
C       8.64      23.39      19.94
C      23.14      16.81       8.56
C      22.60      16.30       9.77
C      23.37      15.51      10.66
C      24.72      15.21      10.34
C      25.28      15.71       9.13
C      24.48      16.49       8.26
C      16.71       7.25      27.15
C      17.20       7.64      28.41
C      16.43       8.42      29.30
C      15.13       8.86      28.92
C      14.62       8.48      27.64
C      15.42       7.68      26.78
C      31.06      15.17      17.84
C      30.60      15.50      19.14
C      31.37      16.28      20.03
C       1.38      16.47      18.32
C      24.69      24.66      36.44
C      25.20      24.19       0.42
C      24.43      23.41       1.31
C      23.09      23.06       0.97
C      22.56      23.52      36.98
C      23.36      24.31      36.11
C       8.80      31.07      10.37
C       9.30      31.49       9.12
C       7.49      31.46      10.72
C       7.27       7.25       1.04
C       6.75       7.71      37.06
C       7.53       8.49      36.16
C       8.86       8.85      36.52
C       9.39       8.40       0.52
C       8.59       7.60       1.38
C      23.41      31.42      29.30
C      24.74      31.06      28.95
C      25.27      31.49      27.71
C      15.16      31.04      17.86
C      14.60      31.64      19.01
C      16.54      31.25      17.62
C      31.02      24.69      28.93
C      30.47      24.15      27.75
C      31.25      23.38      26.85
C       1.45      23.65      28.34
C       1.43       7.80       9.70
C      31.01       8.83      10.31
C      30.44       8.28       9.13
C      31.24       7.50       8.26
C      15.18      15.17      36.48
C      14.64      15.68       0.44
C      15.41      16.45       1.34
C      16.77      16.75       1.02
C      17.32      16.26      37.05
C      16.53      15.47      36.19
N      30.83       0.86       2.64
N       2.72       0.93      36.56
N       9.04       0.90       6.95
N       5.39       0.95      10.25
N      14.81       1.21      21.09
N      18.70       0.55      18.17
N       1.22       9.07      11.80
N      24.95       7.16      21.22
N      21.21       7.34      18.05
N       9.12      16.95      25.67
N       5.33      16.63      28.78
N      14.98      23.29       6.84
N      18.48      22.94      10.27
N       7.00      24.77      16.28
N      10.76      24.53      19.43
N      22.82      15.05      11.88
N      26.61      15.38       8.79
N      16.93       8.75      30.59
N      13.35       8.93      27.22
N      30.89      16.54      21.34
N       2.62      17.00      17.87
N      24.96      23.00       2.56
N      21.24      23.15      36.60
N       7.00       8.87      34.91
N      10.69       8.80       0.91
N      22.88      31.02      30.56
N      26.58      31.11      27.33
N      30.68      22.91      25.64
N       2.79      23.35      28.68
N      29.09       8.56       8.81
N      14.86      16.90       2.56
N      18.66      16.59      36.70
O      22.58       0.28      31.27
O      27.32       0.39      27.15
O      18.83       1.16      17.08
O      14.37       0.31      21.84
O      29.78       1.55       2.55
O       2.66       1.64      35.53
O      30.58      31.58       3.35
O       3.48      31.69      36.34
O      25.96       6.43      21.05
O      21.18       6.65      17.00
O      25.27       8.14      21.94
O      20.48       8.35      17.89
O      10.11      17.69      25.86
O       5.29      17.30      29.85
O       9.46      15.99      24.94
O       4.62      15.61      28.91
O      13.90      22.64       6.88
O      18.36      22.20      11.28
O      14.80      24.34       6.17
O      19.28      23.87      10.56
O       6.00      25.50      16.46
O      10.79      25.21      20.49
O       6.68      23.80      15.55
O      11.49      23.51      19.58
O      21.82      14.30      11.68
O      26.67      14.72       7.72
O      22.46      16.00      12.62
O      27.32      16.41       8.66
O      17.99       9.43      30.51
O      13.43       9.66      26.20
O      17.15       7.73      31.28
O      12.57       7.97      26.98
O      29.80      17.17      21.32
O       2.47      17.75      16.88
O      30.73      15.48      22.00
O       3.43      16.08      17.57
O      25.98      22.27       2.41
O      21.24      22.46      35.55
O      25.27      23.98       3.28
O      20.51      24.15      36.43
O      10.08       1.59       7.06
O       5.44       1.66      11.29
O       9.29      31.61       6.26
O       4.64      31.70      10.47
O       5.97       9.58      35.04
O      10.67       9.49       1.96
O       6.72       7.88      34.20
O      11.44       7.80       1.10
O      21.86      30.30      30.42
O      26.58      30.41      26.29
O      13.86       2.01      20.83
O      19.36      31.21      18.12
O      29.71      22.14      25.85
O       2.86      22.70      29.75
O      30.30      23.85      24.90
O       3.48      24.39      28.79
O       2.18       9.85      11.57
O      28.99       9.20       7.73
O       1.62       8.14      12.55
O      28.41       7.51       8.72
O      13.87      17.64       2.38
O      18.70      17.26      35.64
O      14.51      15.93       3.29
O      19.37      15.57      36.57
