12

Cd       7.39       9.26      17.15
C       7.00       6.90      15.83
C       9.64      10.72      17.56
C       6.11      11.46      15.11
C       4.70       9.64      15.36
N       6.30       9.23      19.21
N       5.80      10.31      15.75
O       8.07       7.59      15.74
O       9.46       9.74      18.36
O       8.79      11.06      16.67
C       6.83       9.91      20.25
C       5.08       8.68      19.34
