19

O       7.01       6.20       8.83
O       4.95       7.09       8.99
O       1.81       3.48      11.21
O       2.77       2.24      12.86
H       7.66       5.35      11.12
H       3.49       4.96      10.00
H       5.07       2.66      13.28
H       1.80       2.00      13.12
C       6.47       3.98      12.30
C       6.67       4.90      11.27
C       5.60       5.25      10.44
C       4.33       4.69      10.63
C       4.15       3.74      11.65
C       5.21       3.39      12.49
C       7.58       3.61      13.23
C       5.82       6.27       9.35
C       2.80       3.14      11.88
O       7.29       2.65      14.07
O       8.69       4.16      13.19
