19

H       0.07       2.26      18.73
H       0.43      -1.90      17.61
H       2.75      -0.34      20.89
H       3.38      -3.61      20.73
C       1.44       1.07      19.90
C       0.51       1.28      18.87
C       0.14       0.21      18.04
C       0.71      -1.06      18.24
C       1.66      -1.25      19.25
C       2.02      -0.19      20.09
C       1.82       2.18      20.82
C      -0.87       0.43      16.96
C       2.24      -2.60      19.50
O       2.82       1.91      21.63
O       1.24       3.28      20.82
O      -0.84       1.64      16.47
O      -1.66      -0.46      16.57
O       1.89      -3.59      18.84
O       3.12      -2.64      20.48
