10

O       3.03       0.10      12.49
O       0.68      -0.96      12.94
O       0.92       1.43      12.01
O       2.51       1.73      15.04
O      -0.94       0.93      14.68
O       0.10       2.89      15.06
P       1.57       0.33      12.87
H       1.39      -0.00      15.25
C       1.44       0.91      14.64
C       0.11       1.65      14.81
