13

O       4.00       4.29       7.52
C       4.09       6.22       4.41
C       4.11       5.15       5.32
O       4.09       6.55       7.23
C       4.07       5.34       6.82
H       4.06       7.24       4.77
N       4.12       3.58       3.49
C       4.10       4.60       2.61
H       4.08       4.34       1.55
H       4.12       2.99       5.48
C       4.08       5.93       3.05
Cl       4.02       7.20       1.87
C       4.11       3.84       4.81
