13

C       2.29       1.78       0.23
O       3.48       1.93       0.65
C       2.87       1.86      -3.53
H       4.18       1.99      -1.81
O       1.24       1.60       0.94
H      -0.06       1.57      -1.10
C       1.54       1.73      -3.96
C       0.79       1.66      -1.77
H       1.29       1.68      -5.02
C       3.15       1.90      -2.16
C       2.09       1.80      -1.26
N       0.53       1.63      -3.09
Cl       4.14       1.94      -4.71
