16

O       3.32       5.44      17.92
O       6.95       3.65      21.37
V       2.48       4.70      19.60
O       2.06       2.96      18.65
O       4.46       3.73      19.89
O       0.83       5.36      19.40
V       6.11       4.40      19.69
O       5.67       6.13      20.63
C       4.50       6.70      20.89
C       0.89       2.39      18.39
C       4.54       5.61      17.39
C       0.91       3.48      21.89
O       5.71       5.29      17.95
O       2.08       3.80      21.33
O       3.29       6.28      20.58
O      -0.32       2.82      18.71
