56

Er       3.55       2.05      13.13
Er       3.55       2.05       6.91
Er      -1.05       2.05       0.23
Er      -1.05       2.05       6.45
H       0.38       6.98       0.93
H       2.53       5.31       0.93
H       4.42      -1.47       5.75
H       2.69       5.57       5.75
H       2.12      -2.88      12.43
H      -0.03      -1.21      12.43
H      -1.91       5.57       7.61
H      -0.18      -1.47       7.61
C      -0.04       4.93       0.79
C       0.81       6.15       0.88
C       2.95       7.36       0.79
C       2.10       6.14       0.88
C       6.05      -0.16       5.89
C       5.35      -1.48       5.80
C       1.06       4.26       5.89
C       1.76       5.57       5.80
C       2.55      -0.83      12.57
C       1.69      -2.06      12.49
C      -0.45      -3.26      12.57
C       0.40      -2.04      12.49
C      -3.54       4.26       7.48
C      -2.84       5.57       7.56
C       1.45      -0.16       7.48
C       0.75      -1.48       7.56
C       2.89       2.45      10.02
C       4.21       1.64      10.02
C      -0.39       1.64       3.34
C      -1.71       2.45       3.34
O      -1.24       5.11       0.46
O       0.43       3.78       1.00
O       2.46       2.81      11.13
O       4.16       7.17       0.46
O       6.67       0.31       1.00
O       4.65       1.28      11.13
O       5.34       0.82       6.22
O      -1.92      -0.06       5.68
O       2.37       2.67       8.91
O       1.77       3.27       6.22
O      -0.18       4.16       5.68
O       4.73       1.42       8.91
O       3.75      -1.02      12.90
O       2.07       0.31      12.36
O       0.05       1.28       2.23
O      -1.65      -3.08      12.90
O      -4.17       3.78      12.36
O      -2.14       2.81       2.23
O      -2.83       3.27       7.15
O       4.42       4.16       7.68
O       0.13       1.42       4.45
O       0.74       0.82       7.15
O       2.68      -0.06       7.68
O      -2.23       2.67       4.45
