25

C       4.86       0.50       4.00
C       4.16       0.01       2.91
C       3.32       0.88       2.20
C       3.20       2.20       2.64
C       3.94       2.61       3.75
C       2.62       0.36       1.04
C       1.45       0.35      -0.76
C       0.69       0.86      -1.89
C       0.08      -0.06      -2.75
C      -0.66       0.42      -3.83
C      -0.20       2.62      -3.27
C       0.55       2.23      -2.16
H       5.52      -0.15       4.58
H       4.26      -1.03       2.60
H       2.53       2.91       2.14
H       3.86       3.62       4.13
H       0.18      -1.12      -2.57
H      -1.15      -0.27      -4.52
H      -0.33       3.67      -3.52
H       1.02       2.99      -1.53
N       4.77       1.78       4.40
N       2.53      -0.89       0.65
N       1.78      -0.89      -0.51
N      -0.81       1.73      -4.08
O       1.95       1.21       0.19
