32

H       1.93      15.50       9.79
H      -0.85      16.97       6.85
H      -2.09      18.18       8.67
H      -1.31      17.99      11.02
H       2.14      12.72       3.35
H       4.98      12.53       6.57
H       6.19      10.68       5.40
H       5.33       9.90       3.17
N       2.53      14.86       7.72
N       3.32      14.15       6.97
N       1.75      14.44       5.21
N       1.13      15.39       5.89
O       0.28      17.31      12.88
O       1.97      16.04      12.10
O       2.03      11.09       1.49
O       3.88       9.85       1.24
C       0.89      16.69      11.91
C       0.37      16.78      10.54
C       1.10      16.13       9.53
C       0.61      16.14       8.19
C      -0.55      16.85       7.89
C      -1.27      17.52       8.92
C      -0.78      17.48      10.22
C       1.39      15.41       7.22
C       2.79      13.78       5.76
C       3.14      10.67       1.91
C       3.63      11.17       3.21
C       2.94      12.20       3.86
C       3.49      12.73       5.05
C       4.65      12.19       5.59
C       5.37      11.20       4.91
C       4.82      10.67       3.73
