210

Zn       8.03      16.16       5.41
Zn      14.30       7.05      15.52
Zn       8.72       3.98       9.58
Zn      13.64       9.93       2.96
Zn      14.31       2.40      11.32
Zn       8.04      11.51       1.21
Zn      13.62      14.57       7.16
Zn       8.71       8.63      13.78
Zn      11.18       4.63       4.19
Zn      11.16      13.92      12.55
H      12.54       2.93       1.77
H       2.62       0.50       2.33
H       6.35      13.52       5.71
H      15.95      14.94       9.25
H      18.51      15.73       8.45
H       9.82       2.06       2.73
H       8.56       2.37       0.26
H      15.98       7.08      12.87
H      17.57      10.74      13.91
H      15.01      10.03      14.78
H       9.82       7.21       5.64
H       8.55       6.91       8.10
H      10.40       3.94      12.24
H      17.56      17.09      11.19
H      15.01      17.80      10.32
H      12.53       6.35       6.60
H      13.80       8.78       6.04
H      11.96      12.56       2.65
H      15.94      12.90      15.86
H      18.50      12.10      16.65
H       9.80      15.63      14.96
H      19.73      18.05      14.41
H      15.99       5.03      11.02
H       6.39       3.61       7.48
H       3.83       2.83       8.28
H      12.52      16.49      14.01
H      13.78      16.19      16.48
H       6.36      11.47       3.87
H       4.78       7.82       2.83
H       7.33       8.52       1.95
H      12.52      11.34      11.09
H      13.79      11.64       8.63
H      11.94      14.61       4.50
H       4.78       1.46       5.55
H       7.34       0.75       6.41
H       9.81      12.20      10.14
H       8.55       9.78      10.69
H      10.38       5.99      14.09
H       6.40       5.66       0.88
H       3.85       6.46       0.08
C      12.79       2.47       2.73
C       2.23       1.25       3.00
C      12.94       2.22       4.85
C       6.90      13.44       4.79
C      16.25      15.83       6.21
C      16.31      15.29       8.29
C      17.59      15.67       7.89
C       9.58       2.96       2.17
C       8.95       3.11       0.94
C       9.43       5.06       1.72
C      15.44       6.15      12.88
C      17.27       7.81      15.12
C      17.21       9.82      14.36
C      15.93       9.46      14.78
C       9.58       6.31       6.19
C       8.94       6.16       7.43
C       9.43       4.22       6.65
C       9.85       4.87      12.22
C      11.69       3.21       9.98
C      11.62       1.20      10.74
C      10.35       1.56      10.32
C      12.78       6.81       5.64
C      13.41       8.02       5.36
C      12.94       7.05       3.51
C      12.51      12.65       3.58
C      10.67      10.25       2.16
C      10.73      10.80       0.08
C      12.00      10.41       0.48
C       9.56      16.09      14.01
C      20.11      17.30      13.73
C       9.41      16.33      11.88
C      15.44       5.11      11.95
C       6.09       2.73      10.53
C       6.03       3.27       8.45
C       4.75       2.89       8.84
C      12.76      15.59      14.56
C      13.39      15.44      15.80
C      12.91      13.50      15.02
C       6.91      12.40       3.85
C       5.07      10.74       1.62
C       5.13       8.73       2.38
C       6.41       9.09       1.95
C      12.76      12.24      10.54
C      13.40      12.39       9.31
C      12.91      14.33      10.08
C      12.50      13.68       4.51
C      10.66      15.34       6.75
C      10.72      17.35       5.99
C      12.00      17.00       6.41
C       9.56      11.74      11.09
C       8.93      10.53      11.37
C       9.41      11.51      13.22
C       9.84       5.91      13.16
C      11.67       8.30      14.57
C      11.62       7.76      16.65
C      10.34       8.14      16.25
C       8.30      13.91       3.22
C      14.04       4.64      13.51
C       8.45       6.37      11.59
C      13.89      12.18       5.15
N      12.48       3.07       3.91
N       2.32       1.10       4.36
N      12.90       2.53       6.24
N       7.79      14.40       4.38
N      17.55      16.00       6.57
N      15.47      15.39       7.22
N      15.75      16.10       4.91
N       9.89       4.20       2.65
N       8.86       4.45       0.65
N       9.46       6.46       1.88
N      14.56       5.84      13.88
N      15.98       8.18      15.25
N      18.05       8.77      14.58
N      17.79       6.55      15.53
N       9.89       5.07       5.72
N       8.85       4.83       7.71
N       9.46       2.81       6.48
N       8.97       5.18      11.22
N      10.39       2.84       9.85
N      12.47       2.25      10.52
N      12.21       4.47       9.58
N      12.47       6.20       4.46
N      13.51       8.17       4.01
N      12.91       6.73       2.13
N      13.39      11.69       3.99
N      11.96      10.08       1.81
N       9.89      10.69       1.15
N      10.16       9.99       3.46
N       9.87      15.48      12.82
N      20.02      17.45      12.38
N       9.44      16.03      10.50
N      14.56       4.16      12.36
N       4.79       2.56      10.17
N       6.87       3.16       9.52
N       6.60       2.45      11.83
N      12.45      14.35      14.08
N      13.48      14.11      16.09
N      12.88      12.09      14.85
N       7.79      12.71       2.86
N       6.37      10.37       1.48
N       4.29       9.79       2.16
N       4.55      12.01       1.21
N      12.45      13.48      11.02
N      13.49      13.72       9.02
N      12.88      15.74      10.25
N      13.38      13.38       5.51
N      11.95      15.71       6.88
N       9.88      16.30       6.21
N      10.14      14.08       7.15
N       9.87      12.35      12.28
N       8.84      10.38      12.72
N       9.43      11.82      14.60
N       8.95       6.86      12.75
N      10.38       8.47      14.93
N      12.46       7.86      15.58
N      12.19       8.57      13.27
N       9.36      14.53       2.53
N      12.98       4.02      14.21
N       7.39       7.00      10.89
N      14.95      11.56       5.85
O      12.40       3.62       6.59
O      13.39       1.70       7.04
O      16.56      16.40       4.01
O       9.82      15.61       2.99
O      14.51      16.04       4.75
O       9.97       6.93       2.93
O       8.96       7.17       0.98
O      16.98       5.68      15.91
O      12.54       4.59      15.23
O       7.84       6.39      15.48
O       9.98       2.35       5.44
O       8.94       2.10       7.37
O      11.40       5.34       9.20
O       6.96       6.43       9.85
O      13.45       4.63       9.63
O      12.40       5.64       1.78
O      13.43       7.55       1.33
O      10.97       9.69       4.37
O      15.42      10.49       5.39
O       8.92      10.05       3.62
O       9.94      14.93      10.14
O       8.95      16.86       9.70
O       5.78       2.16      12.73
O      12.52       2.95      13.75
O       7.84       2.52      11.98
O      12.38      11.63      13.80
O      13.38      11.38      15.75
O       5.36      12.88       0.82
O       9.81      13.97       1.50
O      14.50      12.16       1.26
O      12.36      16.20      11.30
O      13.40      16.45       9.36
O      10.95      13.21       7.54
O      15.38      12.12       6.89
O       8.90      13.92       7.10
O       9.94      12.91      14.95
O       8.91      11.01      15.40
O      11.37       8.86      12.37
O       6.92       8.06      11.35
O      13.43       8.50      13.12
