12

C       4.96       4.49       4.75
C       7.02       0.78       1.64
N       5.49       1.21       4.45
N       4.29       3.69       1.50
O       4.19       3.52       4.36
C       4.78       0.14       4.89
O       5.93       1.44       1.44
O       3.23       0.86       2.65
C       6.59       1.58       5.09
C       3.17       4.39       1.68
C       4.96       3.81       0.32
Cu       4.91       2.38       2.91
