12

C       2.88       5.61       7.72
C       4.70       7.05       7.52
C       1.27       9.85      10.92
N       3.59       6.67       8.16
N       2.40       9.15      11.11
C       3.07       9.28      12.29
C       3.07       9.96       7.86
O       2.30       8.99       8.25
O       4.04       6.90      11.17
O       1.34       6.32       9.96
C       5.13       6.25      10.97
Cu       3.02       7.84       9.70
