28

C      14.83       8.06       4.73
C      14.09       8.11       3.54
C      12.73       8.45       3.55
C      12.13       8.78       4.77
C      12.87       8.76       5.97
C      14.22       8.39       5.95
C      12.20       9.14       7.24
C      11.93       8.40       2.30
C      12.51       8.77       1.07
C      11.76       8.68      -0.11
C      10.44       8.21      -0.08
C       9.87       7.84       1.13
C      10.61       7.94       2.31
C      12.39       9.09      -1.40
C      16.25       7.59       4.71
O      12.85       9.48       8.28
O      10.92       9.11       7.26
O      13.68       9.17      -1.42
O      11.71       9.35      -2.44
O      16.82       7.41       5.83
O      16.77       7.40       3.55
H      14.58       7.83       2.61
H      11.08       9.07       4.82
H      14.80       8.33       6.87
H      13.52       9.15       1.03
H       9.88       8.12      -1.01
H       8.86       7.43       1.16
H      10.15       7.62       3.25
