16

O       0.23       2.06       8.70
C      -0.33       0.87      10.64
C      -0.57       0.91      12.02
C      -1.15      -0.28      12.72
C      -0.51      -0.35       9.73
H      -0.56       2.11      13.81
C       0.16       3.20      12.08
C      -0.34       2.09      12.75
O      -1.33      -1.30      11.99
O      -1.41      -0.14      13.96
O      -1.64      -0.42       9.10
O       0.45      -1.13       9.61
C       0.38       3.14      10.72
H       0.31       4.13      12.63
H       0.73       3.96      10.11
N       0.09       2.01      10.02
