16

N       2.34       3.02       1.84
H       0.41       3.74       1.78
H       0.11       3.57       4.31
H       2.04       2.74       5.68
O       5.55       3.29       1.70
O       2.39       3.08       0.52
C       4.51       2.11       4.79
C       3.33       2.52       3.96
C       4.71       2.37       1.74
C       1.19       3.40       2.46
C       3.44       2.62       2.56
C       2.12       2.86       4.60
O       5.52       1.66       4.21
O       4.37       2.30       6.07
O       4.77       1.23       1.13
C       1.05       3.31       3.83
