16

O       7.62       2.23       8.85
O       6.96       5.26       9.71
H       7.12       2.07      14.00
C       7.63       3.33      10.88
C       7.49       3.30      12.28
C       7.21       2.09      12.92
C       7.06       0.92      12.16
H       6.86      -0.04      12.64
C       7.63       4.57      13.07
C       7.19       0.98      10.79
C       7.95       4.57      10.05
O       9.18       4.72       9.79
O       7.96       5.63      12.47
O       7.34       4.49      14.33
H       7.14       0.13      10.12
N       7.46       2.17      10.18
