25

N       1.24       8.13      26.30
O      -1.50       2.11      20.60
O      -0.07       3.34      19.42
O      -3.21       7.41      27.63
O      -1.90       8.68      28.88
H       1.84       7.14      24.71
H      -1.93       6.35      25.74
H       0.32       9.03      27.75
H       1.11       6.63      22.66
H       0.88       5.22      20.84
H      -1.62       2.85      22.97
H      -1.41       4.29      24.77
C       1.11       7.27      25.28
C      -0.07       6.56      25.03
C      -1.12       6.79      25.88
C      -0.99       7.68      26.96
C       0.23       8.38      27.09
C      -2.12       7.96      27.91
C      -0.13       5.62      23.88
C       0.55       5.89      22.71
C       0.40       5.04      21.61
C      -0.46       3.93      21.65
C      -1.10       3.62      22.89
C      -0.96       4.47      23.98
C      -0.68       3.04      20.47
