14

Cd       9.42      13.05       0.66
C       9.27      13.30       3.79
O       8.73      14.81      -0.92
O       8.59      15.20       1.28
N       9.58      12.37       2.89
N      11.71      13.39       0.15
C      12.55      12.71       1.18
C      12.22      12.92      -1.19
O       9.32      10.94      -0.61
O       7.43      11.94       0.07
C       9.93      11.12       3.32
C       8.43      15.57       0.07
C       8.04      10.97      -0.48
C      11.90      14.87       0.31
