16

O       3.77       1.24      19.34
O       5.56       2.53      19.87
O       4.25      -3.71      20.08
O       6.17      -4.48      20.95
H       7.67       1.35      19.87
H       9.13      -0.65      20.29
H       8.08      -2.88      20.63
H       4.20      -1.19      19.89
C       5.00       1.42      19.67
C       5.85       0.20      19.85
C       7.24       0.35      19.96
C       8.05      -0.76      20.20
C       7.47      -2.02      20.37
C       6.08      -2.18      20.25
C       5.28      -1.06      19.97
C       5.42      -3.51      20.43
