16

C       2.15       5.62      12.64
C       3.20       5.82      13.70
C       4.29       6.67      13.48
C       5.26       6.82      14.47
C       5.14       6.14      15.68
C       4.03       5.31      15.91
C       3.07       5.15      14.92
C       3.90       4.59      17.22
H       4.36       7.21      12.54
H       6.13       7.45      14.27
H       5.90       6.23      16.46
H       2.21       4.50      15.08
O       2.30       6.30      11.56
O       1.22       4.81      12.90
O       2.93       3.75      17.31
O       4.74       4.87      18.12
