20

Zn      14.08       8.13      34.50
C      12.61       8.60      31.94
Zn      15.09       8.72      37.01
O      15.49      10.59      36.23
C      12.17       9.13      36.48
O      12.26       8.72      35.28
C      13.99       5.98      36.48
O      16.91       8.12      36.23
O      13.68       6.26      35.28
O      16.04       7.55      34.20
C      13.79       6.59      31.96
O      14.56      10.12      34.20
O      13.13       9.30      37.32
C      15.38      10.25      39.56
C      17.00       7.71      35.03
C      15.18      10.87      35.03
N      13.43       7.74      32.57
N      15.74       9.11      38.94
O      14.61       6.73      37.32
C      16.56       8.24      39.57
