20

O       2.54       8.12      17.40
Zn       4.36       8.71      16.62
O       7.19       8.72      18.36
O       5.77       6.26      18.35
Zn       5.37       8.13      19.13
C       7.28       9.13      17.16
O       3.41       7.55      19.44
C       5.66       6.59      21.68
O       3.97      10.58      17.40
O       6.32       9.29      16.32
C       4.28      10.87      18.60
C       4.07      10.25      14.08
O       4.84       6.72      16.32
O       4.90      10.12      19.44
C       2.90       8.24      14.06
C       5.46       5.97      17.15
C       6.84       8.60      21.70
C       2.45       7.71      18.60
N       3.71       9.11      14.69
N       6.02       7.74      21.06
