57

Co       3.06      11.24      13.28
Co       2.46       6.73       0.01
Co       0.61      12.37       6.64
H       3.84       0.75      13.17
H       0.92      -0.85      13.19
H       3.76       3.70       0.01
H      -0.79      -1.66      10.37
H       2.13      -1.90      11.94
H       1.15      -1.60       9.63
H      -0.78      10.50       0.07
H       2.14      12.09       0.11
H       1.16       9.76       0.04
H       3.85      12.88       2.91
H       0.94      13.14       1.34
H       1.91      12.86       3.66
C      -1.29       2.18      13.25
C      -1.84       0.90      13.19
C       0.28       0.02      13.21
C       0.83       1.30      13.28
C      -2.10       3.40      13.28
C       4.34      -1.44       8.94
C       4.89      -1.62      10.21
C       2.76      -1.77      11.08
C       2.22      -1.60       9.81
C       5.15      -1.27       7.73
C       4.36       9.06       0.07
C       4.90      10.34       0.09
C       2.78      11.22       0.10
C       2.24       9.94       0.06
C       5.17       7.84       0.05
C      -1.29      12.69       4.34
C      -1.83      12.86       3.06
C       0.30      13.01       2.21
C       0.84      12.85       3.48
C      -2.09      12.52       5.55
N       0.05       2.38      13.29
N      -1.05      -0.19      13.18
N       0.46       6.80       0.02
N       3.32       3.30      13.27
N       3.01      -1.44       8.74
N       4.10      -1.80      11.29
N       2.61      12.38       6.58
N      -0.27      -1.28       7.83
N       3.02       8.86       0.05
N       4.11      11.43       0.10
N       4.47       6.67       0.01
N      -0.26       7.94       0.05
N       0.05      12.69       4.54
N      -1.04      13.03       1.99
N      -1.39      12.37       6.70
N       3.33      12.53       5.45
Cl       0.58       4.53      11.11
Cl       2.45       1.06       6.98
Cl       2.46       6.71       2.22
Cl       0.61      10.19       6.30
Cl      -1.83      10.32      12.20
Cl       4.90       0.92       1.08
