264

Ti       9.10      15.01      17.66
Ti       9.09       3.95       1.35
Ti       9.07      17.65       4.01
Ti       9.04       1.36      15.02
Ti       8.98      17.64      15.07
Ti       9.00       1.37       4.00
Ti       9.01      15.07       1.36
Ti       9.00       3.97      17.65
Ti       0.05       5.55       8.14
Ti      18.06      10.85       5.59
Ti      18.02       8.13       5.52
Ti      -0.00       5.56      10.87
Ti      18.02      13.45      10.85
Ti      -0.00       8.14      13.49
Ti       0.05      10.86      13.50
Ti       0.01      13.53       8.13
H       5.59      16.19       5.87
H      12.39       2.80      13.22
H      12.48      16.19       5.87
H       5.65       2.79      13.22
H      12.47       5.86       2.82
H      12.40      13.20      16.21
H      12.39       2.80       5.82
H       5.65      16.18      13.23
H       5.65       2.83       5.78
H      12.47      16.19      13.14
H      12.46       5.87      16.21
H       5.68      13.20       2.79
H       5.59       5.87      16.21
H      12.40      13.20       2.79
H      14.68      15.29      12.34
H       3.44       3.63       6.68
H       3.45      15.38      12.32
H       3.38       6.67      15.31
H      14.67       6.67      15.31
H      14.69      15.27       6.68
H       3.39      15.28       6.67
H       3.37       6.71       3.70
H      14.68       6.67       3.72
H       3.37      12.31      15.32
H       0.02       8.15       8.11
H       0.02      10.86      10.89
H      18.01       8.16      10.90
H       0.01      10.92       8.18
H       9.04      17.62      17.66
H       9.04       1.35       1.40
H       9.00      17.66       1.40
H       9.01       1.38      17.63
H      18.06      11.69       1.23
H      18.05       1.23       7.35
H      18.04       1.34      11.65
H      18.06      17.72       7.44
H      18.06       7.39       1.33
H      18.04      11.61      17.74
H       9.02       2.16       8.30
H       9.01       8.28      16.87
H       9.03       8.18       2.14
H       9.02      10.79      16.95
H       9.02       2.08      10.82
H       9.04      16.87       8.19
H      14.16       2.65      11.67
H      15.55       3.72      11.68
H       3.91       2.67      11.65
H       2.51       3.73      11.67
H       3.90      11.66       2.61
H       2.51      11.67       3.68
H      14.16      11.64       2.63
H      15.56      11.66       3.69
H      14.16      11.63      16.35
H      15.56      11.66      15.29
H       9.05      10.21       3.36
H       9.04      11.79       2.58
H       5.13       6.83       2.11
H       6.53       5.77       2.16
H       9.03      15.65      10.22
H       9.03      16.43      11.80
H       5.16      12.13      16.85
H       6.54      13.22      16.84
H       0.01      18.32      12.87
H       0.00      16.73      12.10
H      14.20       2.60       7.33
H      15.58       3.69       7.33
H      18.03       6.17      18.33
H      18.05       6.95      16.75
C       9.02       6.61      19.02
C       9.03      12.38       0.02
C       9.02       0.01       6.63
C       9.03      18.99      12.40
C      18.06       9.52       2.90
C      -0.00       9.49      16.15
C      18.05       2.90       9.51
C      18.06      16.14       9.53
C      18.06      17.61       9.58
C      18.04       1.41       9.51
C      18.05       9.47      17.62
C      18.06       9.53       1.41
C       9.04      18.95      10.93
C       9.02       0.00       8.12
C       9.03      10.91       0.06
C       9.03       8.10       0.00
C      18.06      18.32       8.35
C      18.04       0.75      10.74
C      18.04      10.69      18.33
C      18.06       8.31       0.74
C      18.06      10.74       0.69
C      18.05       8.23      18.35
C      18.06      18.34      10.81
C      18.04       0.70       8.30
C       9.01      10.20      17.86
C       9.02       8.77       1.22
C       9.04      17.78       8.78
C       9.02       1.17      10.22
C       9.04      17.71      10.20
C       9.02       1.22       8.84
C       9.03      10.18       1.30
C       9.01       8.82      17.81
C      12.31       4.29      14.75
C       5.75      14.73       4.29
C       5.73       4.28      14.75
C      12.32      14.72       4.29
C      12.32       4.28       4.29
C       5.76      14.70      14.77
C       5.77       4.32       4.25
C      12.32      14.73      14.72
C       3.29       5.22       5.22
C      14.79      13.75      13.82
C      14.79       5.19       5.27
C       3.29      13.79      13.79
C       3.26       5.18      13.78
C      14.79      13.74       5.19
C      14.79       5.19      13.77
C       3.28      13.74       5.19
C       1.99      13.26       5.72
C      16.07       5.74      13.30
C      16.08      13.27       5.72
C       1.98       5.73      13.31
C       1.99      13.28      13.27
C      16.07       5.72       5.74
C      16.08      13.28      13.29
C       1.99       5.73       5.73
C      11.02      15.25      15.24
C       7.05       3.78       3.77
C       7.05      15.23      15.25
C      11.02       3.77       3.78
C      11.02      15.23       3.77
C       7.04       3.77      15.25
C       7.05      15.25       3.78
C      11.01       3.78      15.26
C      12.91       3.65      13.67
C       5.12      15.34       5.39
C       5.14       3.64      13.67
C      12.95      15.34       5.39
C      12.95       5.39       3.67
C       5.13      13.57      15.39
C       5.14       5.45       3.64
C      12.91      13.65      15.37
C       5.11       5.39      15.37
C      12.91      13.64       3.64
C      12.94       5.39      15.37
C       5.17      13.64       3.64
C       5.14       3.68       5.34
C      12.95      15.34      13.62
C      12.91       3.64       5.37
C       5.14      15.33      13.67
C      14.16       5.82       4.17
C       3.88      13.15      14.87
C       3.89       5.86       4.14
C      14.16      13.13      14.95
C      14.16       4.06      13.15
C       3.91      14.84       5.82
C       3.89       4.05      13.16
C      14.17      14.83       5.83
C       3.92       4.11       5.84
C      14.16      14.85      13.19
C      14.15       4.07       5.89
C       3.92      14.90      13.17
C       3.89       5.82      14.87
C      14.16      13.12       4.06
C      14.16       5.82      14.87
C       3.92      13.12       4.06
N      14.71       3.36      12.12
N       3.33       3.34      12.14
N       3.39      12.07       3.37
N      14.70      12.08       3.36
N      14.71      12.10      15.65
N       9.02      10.77       2.52
N       5.70       6.16       2.61
N       9.04      16.49      10.79
N       5.67      12.90      16.44
N      18.06      17.75      12.04
N      14.69       3.40       6.95
N      -0.01       7.01      17.76
O       9.02       6.01      17.89
O       9.02       1.13       6.03
O       9.02       1.12      13.00
O       9.02      12.98      17.91
O      18.05       3.50       8.38
O      18.06      10.64       3.51
O      18.06       8.38       3.49
O      -0.00       3.51      10.64
O      16.85       5.74       9.50
O      16.82      13.28       9.49
O      16.80       9.50       5.73
O      16.85       9.50      13.28
O      10.49       4.36      16.26
O       7.58      14.65       2.77
O       7.56       4.35      16.26
O      10.50      14.65       2.77
O      10.49       2.77       4.36
O       7.56      16.24      14.65
O       7.56       2.77       4.38
O      10.49      16.25      14.66
O       7.55       2.77      14.66
O      10.50      16.24       4.36
O      10.49       2.77      14.66
O       7.57      16.25       4.37
O       7.62       4.33       2.77
O      10.50      14.65      16.25
O      10.51       4.35       2.76
O       7.62      14.66      16.25
O      16.65       5.15       6.74
O      16.59      13.89      12.28
O      16.58       6.74      13.90
O      16.65      12.27       5.14
O      16.65      12.27      13.84
O      16.59       6.73       5.14
O      16.59      13.86       6.73
O      16.63       5.19      12.28
O       9.02       2.06      16.95
O       9.04      16.96       2.07
O       9.03       2.05       2.07
O       9.03      16.94      16.97
O      18.06       7.45       7.44
O       0.00      11.55      11.57
O      -0.00       7.46      11.57
O      18.06      11.57       7.46
O       1.21      13.27       9.50
O       1.25       5.74       9.51
O       1.25       9.49      13.29
O       1.21       9.49       5.75
O       9.04      13.03       1.14
O       9.03      17.87      13.04
O       9.03      17.88       6.02
O       9.03       6.00       1.13
O      18.06      15.50      10.65
O      -0.00       8.37      15.52
O      18.05      10.62      15.53
O      18.06      15.55       8.39
O      10.24      19.00      15.25
O       7.81       0.00       3.77
O       7.78       0.01      15.25
O      10.26       0.01       3.82
O      10.29      15.24       0.01
O       7.83       3.76       0.00
O       7.82      15.24      19.02
O      10.27       3.76      19.01
O       1.46      13.86      12.27
O       1.47       5.15       6.75
O       1.42      12.26       5.15
O       1.46       6.73      13.92
O       1.46       6.73       5.15
O       1.47      12.27      13.87
O       1.42       5.19      12.28
O       1.48      13.85       6.73
