60

Cu       4.99       4.73       1.11
Cu       4.96       9.71       9.49
H       4.18       2.26       2.70
H       6.89      11.65       2.36
H       2.88       1.65       1.69
H       4.31       4.94       7.71
H       3.99       3.26       8.25
H       5.27       4.23       9.02
H       3.53       6.91       9.46
H       9.80      12.21       7.89
H       6.88       2.81       8.28
H       8.48      12.78       8.92
H       4.32       9.50       2.90
H       3.99      11.18       2.36
H       5.28      10.23       1.59
H       3.58       7.54       1.11
H       4.15      10.49       6.67
H       4.06       9.64       5.10
H       8.50       9.34       6.38
H       7.14       4.93       7.72
H       6.82       4.95       5.96
H       8.10       5.97       6.65
H       6.36       7.19       9.07
H       4.16       3.95       3.97
H       4.05       4.83       5.52
H       2.85       5.10       4.22
H       7.15       9.51       2.89
H       6.82       9.49       4.65
H       8.11       8.48       3.97
H       6.41       7.22       1.55
C       3.94       1.51       1.94
C       4.80       1.71       0.75
C       8.21       4.05      10.54
C       3.29       4.77       9.59
C       4.25       4.28       8.58
C       9.54      12.94       8.67
C      10.41      12.74       9.86
C       8.21      10.39       0.07
C       3.30       9.68       1.01
C       4.26      10.17       2.03
C       3.91       9.54       6.18
C       4.77       8.45       6.72
C       5.38       7.37       6.02
C       6.12       6.68       6.99
C       7.08       5.57       6.83
C       3.91       4.91       4.44
C       4.78       5.99       3.89
C       5.38       7.08       4.58
C       6.13       7.76       3.62
C       7.09       8.88       3.79
I       7.85       9.74       9.46
I       2.22       4.70       1.15
N       5.14       2.94       0.32
N       8.72       6.08       9.85
N       5.10      11.50      10.28
N       3.09       8.36       0.75
N       5.11       8.41       8.02
N       5.89       7.31       8.17
N       5.13       6.02       2.59
N       5.92       7.12       2.44
