44

N      -1.88      10.06      13.42
N       1.47       7.50      13.34
H      11.46       1.98      13.04
H       9.59       3.67      12.97
H       6.85       0.39      13.65
H       8.83      -1.13      13.76
O       7.51       3.76      11.19
H       6.09       5.59      10.27
H       4.38       3.51      16.46
O       6.42       2.39      15.47
O       2.01       8.16      11.19
O       0.91       6.80      15.47
C      -0.65      10.55      13.17
C       0.48       9.74      13.12
C       0.32       8.37      13.32
C      -0.96       7.85      13.53
C      -2.03       8.74      13.58
H       1.47      10.17      12.97
H      -1.13       6.78      13.65
H      -3.05       8.38      13.75
H      -0.59      11.63      13.04
C       2.30       7.49      12.18
C       3.48       6.61      12.23
C       4.33       6.54      11.13
H       4.11       7.17      10.27
H       2.46       5.05      16.46
C       3.73       5.81      13.37
C       1.68       6.73      14.51
C       2.87       5.85      14.50
C       3.12       5.03      15.60
C      10.43       1.68      13.18
C       9.39       2.61      13.12
C       8.09       2.15      13.32
C       7.86       0.79      13.53
C       8.96      -0.06      13.58
C       6.80       3.89      12.18
C       5.67       4.85      12.23
C       5.42       5.67      11.13
C       4.84       4.91      13.37
C       5.07       4.09      14.50
C       4.22       4.16      15.60
C       6.18       3.12      14.51
N      10.22       0.38      13.42
N       6.99       3.08      13.34
