12

N       7.96       9.69       8.45
Ni       8.83      10.60      10.05
N       7.99       9.42      11.45
C       8.04      12.79       9.16
C       7.00       9.90      12.23
C       6.63       9.78       8.21
C       8.35       8.13      11.59
C       8.70       8.86       7.69
O      10.45       9.51       9.81
O       9.22      12.41       8.86
C      11.38       9.47      10.72
O       7.38      12.17      10.07
