15

N       8.94      17.78      29.35
N       8.73      17.54      28.05
N       9.80      17.93      27.35
O      12.35      19.62      32.78
O      13.89      20.64      31.45
C      10.18      18.34      29.51
C      10.88      18.77      30.64
C      12.14      19.33      30.44
C      12.89      19.92      31.62
C      12.70      19.44      29.13
C      12.03      18.98      28.01
C      10.74      18.43      28.21
H      10.46      18.68      31.63
H      13.67      19.91      29.04
H      12.46      19.04      27.01
