15

H       5.48       9.83      31.63
H       8.71       8.59      29.07
C       5.23      10.17      29.50
C       5.91       9.74      30.64
C       7.17       9.17      30.46
C       7.90       8.60      31.65
C       7.74       9.07      29.15
C       7.07       9.52      28.02
C       5.79      10.08      28.21
N       4.86      10.59      27.35
N       3.98      10.74      29.35
N       3.79      10.98      28.04
H       7.51       9.45      27.03
O       8.91       7.88      31.51
O       7.34       8.90      32.80
