15

C       5.97       3.77      23.45
C       5.90       5.23      23.82
C       4.71       5.77      24.40
C       4.56       7.12      24.67
C       5.67       7.94      24.40
C       6.87       7.40      23.88
C       6.98       6.05      23.54
O       5.04       3.05      24.01
O       6.83       3.34      22.65
N       7.76       8.45      23.79
N       7.16       9.56      24.22
H       3.90       5.08      24.61
H       3.63       7.53      25.04
H       7.89       5.65      23.10
N       5.90       9.28      24.58
