15

O       0.05      12.52       8.45
O      -1.73      12.83       9.81
C      -0.87      13.25       9.01
C      -0.79      14.71       8.65
C       0.39      15.25       8.06
C       0.54      16.60       7.80
H       1.21      14.57       7.85
H      -2.78      15.13       9.36
C      -1.88      15.54       8.93
C      -1.77      16.89       8.59
H       1.48      17.01       7.43
C      -0.57      17.42       8.06
N      -0.80      18.77       7.89
N      -2.66      17.93       8.67
N      -2.06      19.05       8.25
