524

Nd       1.70       1.15       6.11
Nd       3.56       3.25       8.96
Nd       2.68       5.25      12.54
Nd      -0.37       1.78       2.54
Nd       7.36       9.02      24.05
Nd       5.51       6.92      21.23
Nd       6.33       4.93      17.64
Nd       9.42       8.39      27.65
H      10.03       6.77       4.93
H       8.06       7.50       6.63
H       3.38      10.07       5.97
H       2.57      11.95       4.20
H      -0.66       8.14      29.99
H       1.31       7.35      28.28
H       4.27       2.94      27.95
H       5.09       1.07      29.72
H       7.22       9.18       2.82
H       6.57      10.62       1.41
H       6.90       9.43       7.83
H       6.06       8.43       9.93
H       3.00       6.34       7.72
H       3.81       7.40       5.64
H       2.03      12.28       0.83
H       0.14      13.87       1.20
H       4.47       0.11       3.81
H       4.53      14.61       3.45
H       1.97       3.95      26.73
H       2.93       4.63      24.54
H       5.35       7.60      26.54
H       4.36       6.93      28.71
H       9.32       5.05       3.05
H      11.19       3.39       3.21
H      13.88       6.26       1.48
H      12.03       7.95       1.41
H      13.80       7.80       4.98
H      12.84       9.69       3.28
H       8.98      13.18       3.30
H       7.00      13.91       5.01
H       5.87      12.64      10.09
H       6.85      10.78      11.81
H      10.73       7.30      11.78
H      12.70       6.57      10.06
H      10.60       9.87       6.90
H       9.13      10.64       8.22
H      12.64      13.01       4.10
H      13.64      13.91       2.02
H       5.70       5.45      29.89
H       9.95      10.58       1.80
H       8.83      -1.32       9.10
H       6.98       0.34       9.09
H       3.17      14.22       5.98
H       5.03      12.58       5.97
H       7.45       7.14      10.99
H       6.65       6.06      13.08
H       8.84       8.97      15.39
H       9.55      10.11      13.29
H       0.53       6.49       8.75
H      -1.34       8.15       8.73
H      14.34       3.81       6.35
H      12.48       5.48       6.35
H      -2.92      10.44      10.14
H      12.35      12.34       8.45
H      11.10       0.57       9.11
H       9.14       1.17      10.88
H       7.28      -1.14      15.28
H       8.29      -3.00      16.99
H      11.18      10.65      17.32
H      -3.08      10.05      15.54
H      10.60      12.99      12.27
H      10.93      -2.64      13.68
H      13.82       0.45       9.45
H      -1.41       1.36       7.36
H      11.21      14.22       5.15
H      10.30      13.27       7.25
H       8.80       1.68      14.25
H       7.00       3.39      13.89
H       4.92       0.64      11.30
H       6.72      -1.05      11.66
H      11.77      -3.28      18.54
H       9.35      11.80      20.74
H       6.67       9.07      18.72
H       7.23      10.13      16.56
H      -1.28      11.34      12.01
H       0.58       9.68      11.85
H      -1.95       6.69      13.61
H      12.36       8.33      13.68
H      -0.98       3.40      25.25
H       1.00       2.68      23.55
H       5.67       0.11      24.21
H       6.49      -1.78      25.98
H       9.72       2.03       0.20
H       7.75       2.82       1.90
H       4.78       7.23       2.23
H       3.97       9.11       0.46
H       1.84       0.99      27.36
H       2.49      -0.44      28.77
H       2.16       0.75      22.35
H       3.00       1.74      20.25
H       6.05       3.83      22.46
H       5.25       2.77      24.54
H       7.02      -2.10      29.36
H       8.91      -3.70      28.98
H       4.58      10.07      26.37
H       4.53      -4.44      26.74
H       7.08       6.23       3.44
H       6.12       5.54       5.64
H       3.70       2.58       3.63
H       4.70       3.25       1.46
H      -0.27       5.13      27.13
H      -2.14       6.78      26.97
H      -4.83       3.92      28.70
H      -2.97       2.23      28.78
H      -4.74       2.37      25.20
H      -3.79       0.48      26.90
H       0.08      -3.01      26.89
H       2.05      -3.74      25.18
H       3.18      -2.47      20.09
H       2.21      -0.61      18.37
H      -1.68       2.87      18.40
H      -3.65       3.61      20.12
H      -1.55       0.30      23.28
H      -0.08      -0.46      21.96
H      -3.59      -2.84      26.08
H      -4.58      -3.73      28.16
H       3.35       4.73       0.29
H      -0.89      -0.40      28.38
H       0.23      11.49      21.09
H       2.07       9.83      21.09
H       5.89      -4.05      24.20
H       4.03      -2.41      24.21
H       1.61       3.03      19.19
H       2.40       4.11      17.10
H       0.21       1.20      14.79
H      -0.49       0.06      16.89
H       8.53       3.68      21.44
H      10.39       2.02      21.45
H      -5.29       6.36      23.83
H      -3.43       4.70      23.83
H      11.98      -0.27      20.04
H      -3.30      -2.17      21.73
H      -2.05       9.60      21.08
H      -0.08       9.00      19.30
H       1.78      11.31      14.90
H       0.77      13.18      13.20
H      -2.13      -0.48      12.86
H      12.14       0.12      14.65
H      -1.55      -2.82      17.91
H      -1.88      12.81      16.50
H      -4.77       9.72      20.73
H      10.47       8.81      22.82
H      -2.15      -4.04      25.03
H      -1.24      -3.10      22.94
H       0.26       8.49      15.93
H       2.05       6.78      16.29
H       4.13       9.53      18.88
H       2.33      11.23      18.53
H      -2.71      13.46      11.64
H      -0.30      -1.63       9.45
H       2.38       1.11      11.47
H       1.82       0.04      13.62
H      10.34      -1.18      18.17
H       8.48       0.49      18.33
H      11.00       3.48      16.57
H      -3.30       1.84      16.50
C       8.83       7.90       3.42
C       9.15       7.36       4.71
C       8.15       7.73       5.58
C       7.20       8.53       4.86
C       5.95       8.99       5.29
C       5.13       9.87       4.56
C       3.86      10.38       5.06
C       3.46      11.34       4.17
C       4.49      11.38       3.14
C       4.45      12.30       2.08
C       5.33      12.31       1.00
C       0.02       7.30      30.09
C       1.01       6.91      29.23
C       1.63       5.73      29.77
C       2.60       4.93      29.17
C       3.14       3.76      29.72
C       4.03       2.86      29.00
C       4.44       1.92      29.90
C       9.14       8.22       0.98
C       9.47       7.61       2.21
C       5.43       8.45       6.58
C       6.05       8.75       7.81
C       5.58       8.17       8.99
C       4.51       7.27       8.97
C       3.86       7.01       7.75
C       4.31       7.61       6.58
C       4.09       6.54      10.20
C       3.38      13.33       2.14
C       2.16      13.14       1.48
C       1.11      14.03       1.68
C       1.27      15.11       2.56
C       2.52      15.35       3.17
C       3.57      14.46       2.96
C       1.95      -0.12       2.86
C       3.12       5.38      27.85
C       2.70       4.74      26.68
C       3.24       5.13      25.46
C       4.20       6.14      25.40
C       4.60       6.81      26.57
C       4.05       6.43      27.79
C       4.79       6.48      24.10
C      10.56       6.61       2.24
C      10.33       5.32       2.74
C      11.37       4.39       2.82
C      12.66       4.73       2.37
C      12.88       6.01       1.83
C      11.85       6.94       1.78
C      13.77       3.74       2.45
C      12.24       8.62       6.36
C      12.99       8.51       5.15
C      12.51       9.47       4.29
C      11.44      10.16       4.94
C      10.68      11.20       4.38
C       9.55      11.78       4.96
C       8.77      12.81       4.29
C       7.78      13.17       5.15
C       7.98      12.37       6.36
C       7.25      12.57       7.54
C       7.50      11.90       8.74
C       6.71      11.97       9.94
C       7.20      11.03      10.81
C       8.30      10.36      10.19
C       9.02       9.29      10.72
C      10.12       8.66      10.10
C      10.92       7.65      10.78
C      11.91       7.29       9.91
C      11.67       8.07       8.71
C      12.44       7.90       7.54
C      11.22      11.74       3.09
C      12.27      12.67       3.14
C      12.84      13.17       1.97
C      12.40      12.71       0.72
C      11.36      11.76       0.67
C      10.76      11.30       1.84
C       7.76       7.32      29.68
C       6.14      13.56       7.54
C       7.99      -1.45       8.42
C       6.96      -0.52       8.41
C       5.86      -0.66       7.54
C       4.01      14.35       6.66
C       5.05      13.43       6.65
C       4.75       0.34       7.55
C       8.54       8.70      12.01
C       7.74       7.55      11.96
C       7.30       6.94      13.13
C       7.70       7.43      14.38
C       8.51       8.58      14.43
C       8.93       9.22      13.25
C       7.23       6.71      15.61
C      13.55       6.92       7.55
C      -0.41       6.28       8.22
C      -1.45       7.20       8.22
C      -0.55       5.05       7.54
C      -1.75       4.77       6.87
C      13.42       5.69       6.87
C       0.56       4.06       7.55
C      12.04      11.52      11.66
C      12.60      11.26      10.37
C      12.13      12.22       9.51
C      11.24      13.07      10.23
C      12.47      -1.84       9.79
C      11.51      -1.13      10.53
C      10.85       0.07      10.02
C       9.86       0.36      10.91
C       9.94      -0.66      11.95
C       9.02      -0.72      13.01
C       9.11      -1.60      14.09
C       8.19      -1.72      15.18
C       8.70      -2.66      16.04
C       8.10      12.97      15.50
C       9.01      12.10      16.11
C      10.24      11.70      15.55
C      11.23      10.91      16.27
C      -4.00      10.60      15.37
C      11.77      11.18      14.10
C      12.40      10.91      12.87
C      12.95      -1.27       8.50
C      13.67      -0.07       8.51
C      14.22       0.44       7.34
C      14.03      -0.23       6.12
C      11.41      14.72       6.09
C      10.89      14.18       7.28
C      14.70       0.27       4.88
C       7.88       0.22      12.96
C       7.94       1.46      13.61
C       6.95       2.41      13.41
C       5.87       2.13      12.54
C       5.77       0.86      11.94
C       6.77      -0.08      12.15
C       4.87       3.18      12.24
C       8.62      11.54      17.42
C       9.22      12.02      18.60
C       8.89      11.44      19.82
C       7.99      10.37      19.87
C       7.37       9.90      18.69
C       7.69      10.50      17.48
C       7.71       9.76      21.17
C      -2.69       9.94      12.84
C      -1.43      10.32      12.33
C      -0.39       9.39      12.25
C      -0.58       8.08      12.71
C      -1.82       7.71      13.25
C      -2.87       8.62      13.30
C       0.52       7.08      12.62
C       0.22       2.27      26.76
C      -0.09       2.81      25.47
C       0.91       2.44      24.60
C       1.85       1.64      25.33
C       3.11       1.19      24.89
C       3.92       0.31      25.62
C       5.19      -0.21      25.12
C       5.59      -1.16      26.01
C       4.57      -1.20      27.04
C       4.61      -2.12      28.10
C       3.73      -2.14      29.18
C       9.04       2.87       0.10
C       8.04       3.27       0.95
C       7.42       4.44       0.41
C       6.45       5.24       1.01
C       5.92       6.42       0.46
C       5.03       7.31       1.18
C       4.61       8.25       0.28
C      -0.08       1.96      29.20
C      -0.42       2.56      27.97
C       3.62       1.72      23.60
C       3.00       1.43      22.37
C       3.48       2.00      21.19
C       4.54       2.91      21.21
C       5.20       3.16      22.43
C       4.74       2.56      23.61
C       4.97       3.63      19.98
C       5.67      -3.16      28.04
C       6.89      -2.97      28.71
C       7.95      -3.85      28.50
C       7.78      -4.94      27.62
C       6.54      -5.18      27.02
C       5.49      -4.29      27.23
C       7.11      10.30      27.32
C       5.93       4.79       2.32
C       6.35       5.43       3.50
C       5.82       5.05       4.72
C       4.85       4.03       4.78
C       4.45       3.37       3.60
C       5.01       3.74       2.38
C       4.27       3.69       6.08
C      -1.51       3.56      27.94
C      -1.28       4.86      27.44
C      -2.31       5.78      27.36
C      -3.60       5.45      27.81
C      -3.83       4.17      28.35
C      -2.80       3.23      28.40
C      -4.72       6.43      27.73
C      -3.18       1.56      23.82
C      -3.94       1.66      25.03
C      -3.46       0.71      25.89
C      -2.39       0.01      25.25
C      -1.63      -1.02      25.81
C      -0.49      -1.61      25.22
C       0.28      -2.63      25.89
C       1.27      -3.00      25.03
C       1.07      -2.20      23.83
C       1.81      -2.40      22.64
C       1.56      -1.73      21.44
C       2.34      -1.79      20.24
C       1.85      -0.85      19.37
C       0.75      -0.19      20.00
C       0.03       0.88      19.46
C      -1.07       1.51      20.08
C      -1.86       2.52      19.40
C      -2.85       2.89      20.27
C      -2.62       2.11      21.48
C      -3.39       2.27      22.64
C      -2.17      -1.57      27.09
C      -3.21      -2.50      27.04
C      -3.79      -2.99      28.21
C      -3.35      -2.53      29.46
C      -2.31      -1.59      29.51
C      -1.71      -1.12      28.34
C       1.30       2.85       0.50
C       2.92      -3.39      22.65
C       1.07      11.62      21.76
C       2.10      10.69      21.77
C       3.20      10.83      22.64
C       5.05      -4.18      23.52
C       4.00      -3.25      23.53
C       4.30       9.83      22.64
C       0.51       1.48      18.18
C       1.32       2.62      18.23
C       1.76       3.24      17.06
C       1.35       2.74      15.81
C       0.54       1.59      15.75
C       0.13       0.96      16.93
C       1.83       3.47      14.58
C      -4.50       3.26      22.63
C       9.46       3.90      21.96
C      10.50       2.98      21.96
C       9.61       5.12      22.64
C      10.80       5.41      23.31
C      -4.36       4.48      23.31
C       8.50       6.12      22.64
C      -2.98      -1.34      18.52
C      -3.55      -1.08      19.82
C      -3.07      -2.04      20.68
C      -2.18      -2.90      19.95
C      -3.42      12.02      20.39
C      -2.45      11.31      19.66
C      -1.79      10.11      20.16
C      -0.80       9.82      19.27
C      -0.88      10.84      18.23
C       0.03      10.90      17.17
C      -0.05      11.78      16.10
C       0.86      11.89      15.00
C       0.36      12.84      14.14
C       0.95      -2.79      14.68
C       0.04      -1.93      14.08
C      -1.19      -1.53      14.63
C      -2.18      -0.74      13.91
C      13.06      -0.43      14.82
C      -2.72      -1.01      16.08
C      -3.34      -0.74      17.31
C      -3.89      11.45      21.68
C      -4.62      10.24      21.67
C      -5.16       9.73      22.84
C      -4.98      10.40      24.06
C      -2.36      -4.54      24.09
C      -1.83      -4.01      22.91
C      -5.64       9.90      25.30
C       1.18       9.95      17.22
C       1.11       8.71      16.57
C       2.11       7.76      16.77
C       3.18       8.04      17.64
C       3.28       9.31      18.24
C       2.28      10.26      18.03
C       4.19       7.00      17.94
C       0.43      -1.36      12.76
C      -0.16      -1.84      11.59
C       0.16      -1.27      10.36
C       1.07      -0.20      10.32
C       1.68       0.28      11.49
C       1.37      -0.32      12.71
C       1.35       0.41       9.01
C      11.75       0.23      17.35
C      10.49      -0.15      17.85
C       9.45       0.78      17.93
C       9.64       2.09      17.47
C      10.88       2.46      16.93
C      11.93       1.55      16.88
C       8.52       3.09      17.56
N       7.68       8.65       3.57
N       5.48      10.46       3.37
N       6.32      11.39       0.78
N       8.30       9.30       0.84
N      11.30       9.61       6.19
N       9.05      11.52       6.22
N       8.47      10.94       8.94
N      10.60       8.91       8.84
N      11.17      12.58      11.52
N      10.96      -1.54      11.72
N      10.13      -2.49      14.31
N      10.61      11.90      14.25
N       1.37       1.52      26.61
N       3.58      -0.28      26.82
N       2.73      -1.22      29.40
N       0.76       0.88      29.34
N      -2.24       0.57      24.00
N       0.00      -1.34      23.96
N       0.59      -0.76      21.24
N      -1.54       1.26      21.35
N      -2.11      -2.40      18.67
N      -1.91      11.72      18.46
N      -1.08      12.67      15.88
N      -1.55      -1.73      15.94
O       3.43       5.41      10.06
O       4.33       6.97      11.36
O       2.07       0.80       3.79
O       0.87      -0.27       2.23
O       5.80       7.28      24.04
O       4.30       5.97      23.04
O      13.70       2.75       3.26
O      14.80       3.89       1.70
O       7.49       6.91      28.50
O       8.64       8.26      29.86
O       3.74       0.12       6.80
O       4.86       1.37       8.30
O       6.45       5.68      15.42
O       7.58       7.05      16.78
O       1.59       4.31       8.26
O       0.42       3.00       6.84
O      -0.45       1.06       5.03
O      14.32      -0.02       3.73
O       3.97       2.95      11.32
O       4.90       4.27      12.88
O       7.04       8.66      21.23
O       8.15      10.31      22.24
O       0.50       6.05      13.38
O       1.50       7.26      11.80
O       5.63       4.76      20.12
O       4.72       3.20      18.82
O       6.99       9.38      26.40
O       8.19      10.45      27.96
O       3.26       2.89       6.14
O       4.75       4.20       7.15
O      -4.64       7.43      26.92
O      -5.75       6.29      28.48
O       1.57       3.27       1.68
O       0.41       1.92       0.32
O       5.32      10.05      23.39
O       4.19       8.80      21.88
O       2.61       4.49      14.76
O       1.47       3.13      13.40
O       7.46       5.86      21.93
O       8.63       7.17      23.34
O       9.51       9.12      25.15
O      -5.26      10.20      26.45
O       5.08       7.22      18.87
O       4.15       5.91      17.31
O       2.02       1.51       8.95
O       0.90      -0.14       7.95
O       8.55       4.13      16.81
O       7.55       2.89      18.37
