69

H       9.87      10.87      15.73
H       8.81      12.80      14.58
H       5.77      12.92      17.64
H       6.83      10.96      18.75
H       7.81      15.25      14.60
H       7.31      13.92      13.51
H       5.93      16.87      15.40
H       4.54      15.77      15.39
H       2.04      21.16      14.01
H       3.45      19.37      12.90
H       1.86      10.87      11.64
H       2.91      12.83      12.75
H       5.94      12.92       9.68
H       4.87      10.94       8.60
H       3.90      15.25      12.74
H       4.41      13.90      13.80
H       5.79      16.87      11.93
H       7.18      15.77      11.95
H       9.67      21.16      13.35
H       8.25      19.35      14.46
C       8.89       9.48      17.86
C       8.39      10.76      17.28
C       8.96      11.32      16.13
C       8.36      12.41      15.49
C       7.18      12.95      16.01
C       6.65      12.45      17.22
C       7.25      11.37      17.83
C       6.96      14.62      14.28
C       5.20      16.37      14.75
C       3.86      18.35      14.83
C       4.52      18.69      16.31
C       3.44      19.58      16.79
C       2.34      20.30      16.06
C       2.50      20.34      14.55
C       3.26      19.41      13.96
C       1.71      21.51      16.70
C       8.52      18.10      11.21
C       9.54      18.91      10.50
C       2.82       9.47       9.50
C       3.33      10.74      10.08
C       2.76      11.31      11.23
C       3.36      12.42      11.85
C       4.54      12.96      11.31
C       5.06      12.45      10.11
C       4.46      11.35       9.52
C       4.75      14.63      13.05
C       6.52      16.37      12.59
C       7.86      18.34      12.52
C       7.21      18.67      11.03
C       8.29      19.57      10.56
C       9.38      20.29      11.30
C       9.22      20.34      12.81
C       8.45      19.41      13.39
C      10.01      21.51      10.66
C       3.22      18.11      16.15
C       2.20      18.91      16.86
C       5.86      15.50      13.67
O       8.21       8.87      18.73
O      10.00       8.99      17.37
O       6.42      13.93      15.41
O       4.44      17.38      14.06
O       1.79      22.61      16.08
O       1.11      21.34      17.82
O       3.50       8.85       8.64
O       1.71       8.98       9.99
O       5.28      13.95      11.90
O       7.28      17.38      13.28
O       9.89      22.61      11.28
O      10.62      21.34       9.56
