11

O       3.46       3.68      13.56
O       4.71       5.56      13.59
O       5.69       7.25      15.86
O       5.70       6.84      18.08
N       3.67       3.33      16.21
N       3.74       3.45      17.54
N       4.31       4.62      17.86
C       4.13       4.58      14.16
C       4.19       4.45      15.65
C       4.63       5.26      16.71
C       5.39       6.53      16.86
