32

C      15.14      10.74      14.15
C      15.43      12.07      13.53
C      14.83      12.40      12.32
C      15.11      13.63      11.72
C      16.02      14.52      12.29
C      16.61      14.21      13.52
C      16.31      12.99      14.15
C      17.56      15.17      14.16
N      13.51      13.36      10.18
N      14.51      14.07      10.52
H      13.87      15.72       8.86
H      11.77      11.97       8.90
H      11.26      14.68       5.59
O      13.54      17.53       7.24
H      14.14      11.70      11.84
H      16.25      15.46      11.79
H      16.76      12.74      15.11
O      12.44      16.87       5.35
O      10.09      11.23       7.22
O      10.07      12.54       5.36
O      14.48       9.90      13.45
O      15.57      10.55      15.34
O      17.92      16.20      13.47
O      17.95      14.89      15.34
C      12.88      16.68       6.54
C      12.58      15.36       7.16
C      13.19      15.03       8.38
C      12.91      13.79       8.98
C      12.00      12.91       8.40
C      11.41      13.22       7.17
C      11.71      14.44       6.55
C      10.46      12.26       6.54
