32

H      13.24      -0.10       8.54
H      15.39      -3.83       8.54
H      15.40      -1.34       5.02
N      13.82      -2.11      10.04
N      14.24      -3.15      10.65
O      14.35       0.82       4.79
O      13.11       1.46       6.59
H      14.81      -5.16      12.16
H      12.66      -1.43      12.15
H      12.66      -3.92      15.67
O      16.71      -3.37       4.79
O      16.69      -4.71       6.63
O      13.70      -6.08      15.91
C      13.88       0.65       5.97
C      14.26      -0.59       6.69
O      14.94      -6.72      14.10
C      14.27      -1.99       8.69
C      15.07      -2.93       8.03
C      15.47      -2.69       6.70
O      11.35      -1.88      15.90
C      13.86      -0.82       8.02
C      15.07      -1.53       6.04
O      11.36      -0.55      14.06
C      16.35      -3.67       5.99
C      14.18      -5.91      14.72
C      13.79      -4.66      14.00
C      14.19      -4.43      12.67
C      13.78      -3.27      12.00
C      12.98      -2.33      12.67
C      12.58      -2.56      13.99
C      12.98      -3.73      14.65
C      11.70      -1.59      14.70
