22

Cr       9.89       0.59       0.14
Cr       8.19       3.55      -0.10
Cr       6.48       0.59       0.02
C      10.42       2.84      -1.95
C       5.94       2.68      -2.06
C       8.35      -1.07      -1.81
C      10.27       3.06       1.98
C       5.91       2.84       1.87
C       8.24      -0.84       2.15
O       9.49      -0.84      -1.31
O      10.51       1.73      -1.32
O       9.61       3.75      -1.59
O       6.88       3.36      -1.55
O       5.59       1.55      -1.60
O       7.28      -0.61      -1.29
O       9.41      -0.66       1.73
O      10.44       1.90       1.50
O       9.52       3.93       1.45
O       6.80       3.53       1.26
O       5.50       1.73       1.44
O       7.21      -0.44       1.53
O       8.19       1.58       0.02
