46

H      10.31       0.48       7.69
H      10.04       2.61       7.68
H       7.95       3.26       8.70
H       5.78       1.81      11.58
H       8.38       0.71       5.20
H       7.32       1.62       3.12
H       5.09       0.78       9.46
H       9.15       4.71       7.87
H       7.16       6.15       3.52
H       6.64      -0.44      11.10
H       6.80      -1.02       9.43
H       8.96      -0.23       9.22
H       8.97      -0.06      10.98
H       6.90       0.64       7.61
H       6.11       2.22       7.74
H       7.73       7.84       5.28
H       8.08       2.00      11.91
H       8.01       3.47      10.92
H       9.03       7.94       9.49
H       8.10       6.39       9.36
N       7.39       3.59       3.74
N       8.63       1.72       9.90
H       9.87       6.42       9.02
C       9.14       2.03       7.41
C       8.12       2.18       8.56
C       7.76       4.46       4.72
C       6.28       2.16      10.67
C       8.56       2.63       6.14
C       8.33       4.03       5.97
C       8.20       1.78       5.10
O       9.49       0.67       7.17
C       6.15       1.05       9.59
C       7.61       2.29       3.93
C       7.57       5.85       4.49
C       6.96      -0.15      10.09
C       8.45       0.24      10.06
O       4.24       3.37      10.30
O       6.14       4.38       9.68
C       8.66       5.01       6.95
C       6.77       1.51       8.26
C       8.40       6.35       6.70
O       8.65       7.37       7.59
C       7.87       6.77       5.45
C       7.79       2.40      10.93
C       5.52       3.40      10.20
C       8.93       6.99       8.95
