46

C       1.54       3.50      13.53
C       1.45       5.74      14.40
C       0.83       5.25      15.56
C      -0.62       6.48       9.92
C       1.86       2.51      12.55
C       0.77       1.69      15.02
C       0.18       7.69       9.42
C       1.67       7.31       9.45
C       1.60       1.17      12.81
C       0.00       6.03      11.25
C       1.09       0.75      14.07
C       1.03       5.15       8.57
C      -1.23       4.12       9.30
C       2.12       0.53      10.56
N       0.58       3.95      15.75
N       1.86       5.83       9.61
H       3.58       7.02      11.80
H       3.27       4.88      11.81
H       1.17       4.28      10.80
H      -0.98       5.72       7.93
H       1.66       6.81      14.31
H       0.55       5.93      16.37
H      -1.68       6.74      10.05
H       2.34       2.80      11.63
H       0.36       1.40      15.98
H      -0.14       7.96       8.40
O       2.76       6.83      12.33
H       0.01       8.56      10.06
O       1.85       0.15      11.92
H       2.17       7.78      10.30
H       0.14       6.90      11.89
H      -0.64       5.32      11.78
H       2.20       7.62       8.54
O      -2.50       4.12       9.14
O      -0.61       3.17       9.88
H       0.96      -0.31      14.25
H       1.32       5.55       7.60
H       1.26       4.08       8.59
H       2.20      -0.41      10.01
H       1.29       1.14      10.16
H       3.05       1.11      10.48
C       2.38       5.48      12.09
C       1.36       5.35      10.94
C       0.96       3.08      14.77
C      -0.48       5.37       8.84
C       1.79       4.90      13.36
