37

O       4.76      12.07       5.20
O       6.65      12.84       4.19
O       8.12       8.71       0.46
Zn       8.88       8.37      -2.41
O       7.71       7.30      -1.24
Zn      11.50       9.68      -4.00
Zn       3.27      11.42       4.00
O       2.50      13.13       3.37
Zn       5.88      12.73       2.41
O       4.31      13.92       2.24
Zn       7.39      10.55       0.01
C      10.98      11.87      -1.84
C      10.02      12.08      -0.86
O       2.22      10.63       5.40
C      13.61      11.09      -4.96
C       5.93      12.56       5.22
C       7.71       7.59       0.00
C       3.17      14.05       2.79
C       3.79       9.24       1.84
C       4.75       9.03       0.86
C       1.16      10.01       4.96
C       8.84       8.54      -5.22
N      10.67      10.70      -2.46
N       9.57      10.21      -1.88
N       9.16      11.03      -0.91
C       7.06      13.51      -0.00
N       4.10      10.40       2.46
N       5.20      10.89       1.88
N       5.61      10.07       0.91
O      10.01       9.03      -5.20
O       8.12       8.26      -4.19
O       6.64      12.39      -0.46
O       7.06      13.80       1.25
O      10.46       7.18      -2.24
O      12.27       7.97      -3.37
C      11.60       7.05      -2.79
O      12.54      10.48      -5.40
