14

Sr       1.72       1.03       9.58
O       2.82      -0.93       8.14
Sr       5.17      -1.03       8.93
O       4.07      -2.20      11.03
C       1.72      -1.23       7.60
C       5.17      -2.43      11.58
C       5.17       1.23      10.91
C       1.72       2.43       6.93
O       0.62      -0.93       8.14
O       6.27      -2.20      11.03
O       4.07       0.93      10.38
O       2.83       2.20       7.49
O      -0.62       0.93      10.38
O       0.62       2.20       7.49
