18

Ce       2.37       0.01      14.55
H       1.37       1.74      16.71
O       3.45       1.01      12.43
C       3.23       0.58      11.29
H       3.03      -2.87      13.88
O       0.88       1.07      16.55
O       2.64      -0.78      16.88
O       0.52      -1.61      15.02
O       4.80      -0.40      14.75
O       3.26      -2.40      14.45
O       3.54       2.19      15.10
C       1.70      -0.81      17.77
O       1.72      -1.00      12.31
C       0.62       0.27      17.69
C      -0.70      -1.49      14.86
C       4.57      -2.76      14.79
C       3.45       3.02      16.02
C       2.23      -0.58      11.23
