18

C       3.76       0.81       4.76
Ce       2.68       3.81       3.29
O       1.20       2.75       5.29
C       2.55       4.41      -0.03
O       2.96       4.61       5.61
C       0.94       3.55       6.43
C       2.02       4.64       6.50
H       3.34       6.70       2.62
O       3.77       2.82       1.17
H       1.69       2.08       5.45
C      -0.39       5.31       3.60
C       3.55       3.25       0.03
O       0.83       5.44       3.75
O       5.11       4.23       3.48
O       3.57       6.23       3.19
O       3.85       1.63       3.83
O       2.04       4.83       1.04
C       4.89       6.59       3.53
