224

C      10.54       5.78      41.15
C      10.10       4.61      40.47
C      10.18       4.54      39.05
C      10.63       5.66      38.34
C      11.05       6.83      38.99
C      11.06       6.88      40.41
C       9.59       3.54      41.23
C      11.62       7.97      41.11
C      10.48       5.85      42.58
C       9.84       4.82      43.33
C       9.68       4.95      44.74
C      10.40       5.97      45.40
C      11.12       6.97      44.69
C      11.08       6.95      43.27
C       9.46       3.65      42.62
C      11.65       7.99      42.51
C      10.51      14.13      29.36
C      10.06      15.30      30.06
C      10.14      15.35      31.48
C      10.58      14.22      32.18
C      11.00      13.06      31.52
C      11.02      13.03      30.10
C       9.57      16.38      29.30
C      11.58      11.95      29.39
C      10.45      14.08      27.93
C       9.81      15.12      27.20
C       9.65      15.00      25.78
C      10.38      13.99      25.11
C      11.09      12.98      25.81
C      11.05      12.99      27.23
C       9.44      16.29      27.91
C      11.63      11.94      27.99
C       1.96      13.25       5.79
C       2.43      14.41       6.47
C       2.34      14.49       7.89
C       1.87      13.37       8.60
C       1.44      12.21       7.95
C       1.42      12.15       6.53
C       2.94      15.47       5.70
C       0.85      11.07       5.83
C       2.03      13.17       4.36
C       2.69      14.19       3.61
C       2.86      14.04       2.20
C       2.11      13.04       1.54
C       1.38      12.06       2.25
C       1.41      12.08       3.67
C       3.08      15.36       4.31
C       0.82      11.05       4.44
C       2.00       4.88      17.55
C       2.46       3.72      16.85
C       2.39       3.67      15.43
C       1.95       4.81      14.74
C       1.51       5.97      15.40
C       1.48       5.99      16.82
C       2.96       2.64      17.61
C       0.90       7.06      17.54
C       2.05       4.93      18.98
C       2.70       3.89      19.72
C       2.86       4.01      21.13
C       2.12       5.00      21.81
C       1.39       6.00      21.11
C       1.44       6.01      19.69
C       3.08       2.73      19.00
C       0.85       7.05      18.94
C      11.75       9.53      36.57
C      11.77       8.92      34.24
C      11.71      10.29      33.88
C      11.76      10.89      36.21
C      11.76       7.80      33.27
C      11.66       9.11      37.90
C      11.60      10.76      32.56
C       9.52      18.08      33.93
C       9.46      17.44      36.26
C       9.52       1.77      36.64
C       9.52       2.39      34.32
C       9.42      16.31      37.21
C       9.58      17.68      32.58
C       9.58       2.22      37.98
C       0.73       9.51      10.37
C       0.74      10.11      12.70
C       0.78       8.74      13.05
C       0.71       8.15      10.72
C       0.76      11.22      13.68
C       0.81       9.94       9.04
C       0.90       8.26      14.37
C       3.05       0.95      13.00
C       3.14       1.57      10.66
C       3.05      17.25      10.28
C       3.03      16.64      12.61
C       3.20       2.70       9.70
C       2.97       1.36      14.34
C       2.99      16.80       8.95
C      13.04       9.41      46.81
C      14.42      11.20      45.93
C      14.81       9.67       0.07
C      13.43       7.89       0.94
C      14.88      11.88      44.70
C      12.18       8.32      46.57
C       0.31      10.74       0.36
C      13.03      10.55      23.70
C      14.39       8.75      24.60
C      14.80       8.38      23.29
C      13.44      10.16      22.41
C      14.83       8.06      25.83
C      12.17      11.64      23.94
C       0.31       7.30      23.00
C       6.99      17.26      24.36
C       6.77       1.06      22.11
C       5.60       1.79      22.48
C       5.83      17.98      24.71
C       7.35       1.05      20.75
C       7.71      16.49      25.29
C       4.85       2.57      21.58
C       7.01       2.70      46.16
C       6.79      16.96       1.22
C       5.61      16.24       0.85
C       5.85       1.99      45.80
C       7.37      16.95       2.58
C       7.72       3.48      45.23
C       4.86      15.46       1.75
H      10.66       5.63      37.31
H      10.34       6.04      46.42
H       9.16       2.81      43.12
H       9.29       2.67      40.79
H      12.10       8.79      42.96
H      12.07       8.74      40.62
H      10.60      14.24      33.21
H      10.33      13.93      24.09
H       9.14      17.13      27.42
H       9.27      17.24      29.76
H      12.07      11.14      27.53
H      12.05      11.18      29.87
H       1.85      13.41       9.63
H       2.18      12.97       0.52
H       3.39      16.19       3.81
H       3.26      16.34       6.14
H       0.36      10.25       3.99
H       0.38      10.32       6.33
H       1.94       4.79      13.71
H       2.17       5.06      22.83
H       3.39       1.89      19.49
H       3.27       1.78      17.15
H       0.39       7.84      19.40
H       0.43       7.82      17.06
H      11.74      11.64      36.91
H      11.80       6.84      33.78
H      12.63       7.88      32.61
H      10.85       7.84      32.67
H      11.62       9.79      38.67
H      11.58      10.12      31.78
H       9.56       3.14      33.63
H       9.39      15.35      36.69
H       8.54      16.39      37.84
H      10.32      16.33      37.84
H       9.56       1.32      31.83
H       9.51      18.61      38.76
H       0.73       7.41      10.02
H       0.72      12.19      13.18
H      15.27      11.15      14.34
H       1.67      11.18      14.27
H       0.84       9.26       8.27
H       0.93       8.90      15.16
H       2.97      15.89      13.30
H       3.24       3.66      10.22
H       4.09       2.61       9.08
H       2.31       2.70       9.07
H       2.96       0.68      15.10
H       3.06       0.40       8.17
H      13.09       7.39       1.77
H      14.45      11.42      43.80
H       0.59      11.82      44.62
H      14.57      12.93      44.72
H      11.82       5.86       0.19
H       0.69      13.22      46.77
H      13.12      10.66      21.58
H      14.39       8.52      26.72
H       0.54       8.12      25.92
H      14.52       7.02      25.80
H      11.82      12.19      23.15
H       0.68       6.73      23.77
H       5.46      17.96      25.67
H       8.24      17.47      20.70
H       7.63       2.07      20.46
H       6.62      17.71      20.04
H       7.32      16.43      26.24
H       5.20       2.66      20.63
H       5.47       2.02      44.85
H       8.27       0.53       2.64
H       7.65      15.94       2.86
H       6.65       0.29       3.30
H       7.34       3.54      44.28
H       5.21      15.36       2.70
N      11.35       7.82      38.12
N       9.91       3.50      38.23
N      11.85       7.94      45.31
N       8.82       4.23      45.52
N      11.29      12.06      32.38
N       9.88      16.39      32.31
N      11.83      12.01      25.19
N       8.80      15.73      25.00
N       1.14      11.22       8.82
N       2.63      15.52       8.71
N       0.63      11.10       1.63
N       3.74      14.74       1.42
N       1.22       6.97      14.55
N       2.66       2.65      14.60
N       0.64       6.96      21.74
N       3.74       3.29      21.90
N      11.76       8.62      35.56
N      11.72      11.21      34.90
N       9.49      17.16      34.93
N       9.55       2.69      35.64
N       0.74      10.42      11.38
N       0.76       7.83      12.04
N       3.10       1.87      11.99
N       3.00      16.34      11.29
N      13.56      10.14      45.78
N      14.28       8.94       1.10
N      13.54       9.81      24.73
N      14.30       9.11      22.26
N       7.40      17.36      23.07
N       5.19       1.68      23.78
N       7.42       0.67       0.28
N       5.20      18.28      46.73
