656

Zn      14.59       0.95      16.21
Zn      16.06      28.82      15.71
Zn       4.63       0.00      29.77
Zn       6.57      24.35      22.85
Zn       6.15       0.12       1.39
Zn       4.79      24.20      19.93
Zn       5.68      21.59       8.84
Zn       6.21      22.67       5.59
Zn       6.31      21.50      21.04
Zn       5.14      29.52      14.80
Zn       6.61       1.65      15.30
Zn      14.08      30.46       1.23
Zn      16.02       6.11       8.15
Zn      15.60      30.35      29.62
Zn      14.24       6.27      11.07
Zn      15.13       8.88      22.17
Zn      15.66       7.80      25.41
Zn      15.76       8.97       9.97
Zn      14.59      16.18      30.30
Zn      16.06      13.58      30.80
Zn       4.63      15.24      16.74
Zn       6.57       9.12      23.65
Zn       6.15      15.35      14.12
Zn       4.79       8.96      26.57
Zn       5.68       6.35       6.67
Zn       6.21       7.44       9.91
Zn       6.31       6.27      25.47
Zn       5.14      14.28       0.71
Zn       6.61      16.88       0.20
Zn      14.08      15.23      14.27
Zn      16.02      21.35       7.35
Zn      15.60      15.11      16.89
Zn      14.24      21.50       4.43
Zn      15.13      24.11      24.34
Zn      15.66      23.03      21.10
Zn      15.76      24.20       5.53
H       8.01      30.45      27.24
H      12.07       0.04      27.09
H      10.15      30.08      30.64
H      11.77       0.84      25.12
H      11.48      29.81      24.75
H      12.52       1.29      22.72
H      11.65       0.72      21.54
H       8.81      30.12      23.43
H       9.93      29.24      22.75
H       8.16       0.75      19.32
H       5.83      28.01      18.72
H       7.96      28.26      22.11
H      13.69      27.71      23.17
H      15.53      27.20      19.71
H      13.41       0.04      20.35
H      10.68      30.24      15.04
H       8.46      27.08      13.78
H      12.34      26.59      14.51
H      11.93      24.40      13.46
H      11.44      24.40      14.95
H      12.28      21.82      13.45
H      11.15      20.94      14.13
H       8.68      23.51      14.57
H       9.63      22.91      15.67
H       7.54      19.34      14.52
H       4.99      19.69      17.55
H       7.27      22.86      16.36
H       8.90       4.44      23.58
H      10.75       7.97      23.06
H      12.94       4.59      23.92
H       9.90       2.30      22.38
H       9.26       2.07      23.80
H      12.79      19.61      14.79
H      15.41      19.14      17.87
H      13.42      22.60      17.37
H      10.58      22.39       6.46
H      12.86      22.52       9.73
H       8.86      22.98      10.07
H       9.38      23.55      12.19
H       9.53      21.99      12.29
H      17.46       0.02       3.76
H       2.61      30.42       3.92
H       0.70       0.39       0.36
H       2.32      29.62       5.88
H       2.03       0.66       6.26
H       3.07      29.17       8.28
H       2.20      29.75       9.47
H      18.26       0.34       7.57
H       0.47       1.23       8.25
H      17.61      29.71      11.69
H      15.28       2.46      12.28
H      17.41       2.20       8.89
H       4.24       2.75       7.83
H       6.08       3.27      11.29
H       3.96      30.42      10.66
H       1.23       0.22      15.96
H      17.91       3.39      17.22
H       2.89       3.87      16.49
H       2.48       6.06      17.55
H       1.99       6.07      16.05
H       2.83       8.65      17.55
H       1.70       9.52      16.88
H      18.13       6.96      16.44
H       0.18       7.56      15.34
H      16.99      11.12      16.48
H      14.44      10.77      13.45
H      16.72       7.60      14.64
H      18.35      26.03       7.42
H       1.30      22.49       7.94
H       3.49      25.87       7.08
H       0.45      28.16       8.62
H      18.71      28.39       7.20
H       3.34      10.86      16.22
H       5.96      11.33      13.13
H       3.97       7.86      13.64
H       1.13       8.07      24.55
H       3.41       7.95      21.28
H      18.31       7.48      20.93
H      18.84       6.91      18.81
H       0.08       8.48      18.72
H       8.01      15.22      19.27
H      12.07      15.27      19.42
H      10.15      14.85      15.86
H      11.77      16.08      21.39
H      11.48      14.57      21.76
H      12.52      16.53      23.79
H      11.65      15.95      24.97
H       8.81      14.89      23.08
H       9.93      14.00      23.76
H       8.16      15.98      27.19
H       5.83      12.78      27.78
H       7.96      13.03      24.39
H      13.69      12.48      23.34
H      15.53      11.97      26.80
H      13.41      15.27      26.16
H      10.68      15.01       0.46
H       8.46      11.84       1.72
H      12.34      11.36       0.99
H      11.93       9.17       2.05
H      11.44       9.16       0.55
H      12.28       6.58       2.05
H      11.15       5.71       1.38
H       8.68       8.27       0.93
H       9.63       7.67      30.84
H       7.54       4.11       0.98
H       4.99       4.46      28.95
H       7.27       7.63      30.15
H       8.90      19.67      22.92
H      10.75      23.20      23.44
H      12.94      19.82      22.58
H       9.90      17.53      24.12
H       9.26      17.30      22.70
H      12.79       4.37       0.72
H      15.41       3.91      28.64
H      13.42       7.37      29.14
H      10.58       7.16       9.04
H      12.86       7.28       5.78
H       8.86       7.75       5.43
H       9.38       8.32       3.31
H       9.53       6.76       3.22
H      17.46      15.25      11.74
H       2.61      15.19      11.59
H       0.70      15.62      15.14
H       2.32      14.39       9.62
H       2.03      15.89       9.25
H       3.07      13.94       7.22
H       2.20      14.52       6.04
H      18.26      15.58       7.93
H       0.47      16.46       7.25
H      17.61      14.48       3.82
H      15.28      17.69       3.22
H      17.41      17.43       6.61
H       4.24      17.99       7.67
H       6.08      18.50       4.21
H       3.96      15.19       4.85
H       1.23      15.45      30.54
H      17.91      18.62      29.28
H       2.89      19.10      30.01
H       2.48      21.29      28.96
H       1.99      21.30      30.45
H       2.83      23.88      28.95
H       1.70      24.75      29.63
H      18.13      22.19      30.07
H       0.18      22.79       0.16
H      16.99      26.35      30.02
H      14.44      26.00       2.05
H      16.72      22.84       0.86
H      18.35      10.79       8.08
H       1.30       7.26       7.56
H       3.49      10.64       8.42
H       0.45      12.93       6.88
H      18.71      13.16       8.30
H       3.34      26.09      30.29
H       5.96      26.56       2.37
H       3.97      23.09       1.87
H       1.13      23.30      21.96
H       3.41      23.18      25.23
H      18.31      22.71      25.57
H      18.84      22.14      27.70
H       0.08      23.71      27.79
C       7.61      30.23      29.82
C      14.46      17.75      15.86
C      12.66      30.08      29.64
C       8.88      30.25      29.04
C       8.83      30.38      27.68
C      10.02      30.42      26.97
C      11.29      30.38      27.58
C      11.33      30.13      28.95
C      10.12      30.14      29.71
C      11.10       0.23      24.77
C      10.67       0.67      23.33
C      11.89       0.61      22.47
C       9.57      30.13      22.82
C       8.22      29.87      20.86
C       7.83      30.39      19.60
C       6.94      29.67      18.78
C       6.44      28.48      19.24
C       6.83      27.96      20.48
C       7.70      28.62      21.29
C       6.32      26.66      20.94
C      13.37      29.13      21.80
C      13.88      27.98      22.30
C      14.67      27.27      21.51
C      14.97      27.71      20.25
C      14.48      28.90      19.79
C      13.70      29.66      20.60
C      15.16      25.90      21.97
C      14.84      29.40      18.38
C       8.10      29.64      14.52
C       6.52      30.29      17.48
C      13.06      29.11      15.24
C      11.73      28.52      14.84
C      10.61      29.35      14.82
C       9.34      28.78      14.45
C       9.27      27.44      14.07
C      10.40      26.64      14.11
C      11.60      27.15      14.49
C      11.16      24.31      14.03
C      10.51      22.96      13.81
C      11.58      21.82      14.12
C       9.33      22.81      14.75
C       7.64      21.12      15.36
C       7.17      19.86      15.20
C       6.18      19.29      15.98
C       5.63      20.06      16.98
C       6.05      21.43      17.14
C       7.03      21.96      16.30
C       5.73      17.89      15.81
C       5.51      22.28      18.27
C       8.27       6.94      23.33
C       9.69       4.93      23.54
C       9.64       6.28      23.35
C      10.80       7.07      23.27
C      12.05       6.44      23.51
C      13.33       7.22      23.57
C      12.12       5.01      23.74
C      10.94       4.26      23.67
C      10.09       2.03      23.30
C      13.04      21.26      15.92
C      13.26      19.97      15.51
C      14.24      19.19      16.25
C      14.84      19.68      17.37
C      14.60      21.04      17.80
C      13.66      21.75      17.07
C      15.24      21.56      18.98
C       8.16      22.71       7.54
C      10.66      22.50       7.38
C      11.90      22.50       7.96
C      13.11      22.20       7.15
C      12.03      22.58       9.32
C      10.86      22.76      10.12
C       9.62      22.83       9.55
C      10.00      22.83      12.39
C       9.54      22.68       8.17
C      17.06       0.24       1.18
C       5.01      12.71      15.15
C       3.21       0.38       1.36
C      18.33       0.21       1.96
C      18.28       0.08       3.33
C       0.57       0.05       4.04
C       1.84       0.09       3.42
C       1.88       0.33       2.06
C       0.67       0.32       1.29
C       1.65      30.23       6.24
C       1.22      29.79       7.67
C       2.43      29.86       8.53
C       0.12       0.33       8.18
C      17.67       0.59      10.15
C      17.28       0.07      11.40
C      16.40       0.80      12.22
C      15.89       1.99      11.76
C      16.28       2.50      10.52
C      17.15       1.84       9.71
C      15.77       3.80      10.07
C       3.91       1.33       9.20
C       4.43       2.48       8.70
C       5.22       3.20       9.50
C       5.52       2.75      10.75
C       5.03       1.56      11.22
C       4.25       0.80      10.40
C       5.70       4.56       9.04
C       5.39       1.06      12.62
C      17.55       0.83      16.48
C      15.97       0.17      13.52
C       3.61       1.35      15.77
C       2.28       1.94      16.17
C       1.16       1.12      16.18
C      18.79       1.68      16.55
C      18.72       3.03      16.94
C       0.95       3.82      16.89
C       2.15       3.32      16.52
C       1.70       6.16      16.98
C       1.05       7.50      17.19
C       2.13       8.65      16.88
C      18.78       7.65      16.26
C      17.09       9.34      15.64
C      16.62      10.60      15.80
C      15.63      11.17      15.02
C      15.08      10.40      14.02
C      15.50       9.03      13.86
C      16.48       8.50      14.71
C      15.18      12.57      15.19
C      14.96       8.19      12.74
C      17.72      23.52       7.68
C       0.24      25.54       7.47
C       0.19      24.19       7.65
C       1.35      23.40       7.73
C       2.60      24.03       7.49
C       3.88      23.24       7.44
C       2.67      25.46       7.27
C       1.49      26.21       7.33
C       0.64      28.43       7.71
C       3.59       9.21      15.08
C       3.80      10.50      15.50
C       4.78      11.28      14.76
C       5.39      10.78      13.63
C       5.15       9.42      13.20
C       4.21       8.71      13.93
C       5.79       8.90      12.02
C      17.61       7.76      23.46
C       1.21       7.96      23.63
C       2.45       7.96      23.05
C       3.66       8.26      23.85
C       2.57       7.88      21.68
C       1.41       7.70      20.89
C       0.17       7.63      21.45
C       0.55       7.63      18.61
C       0.09       7.79      22.84
C       7.61      14.99      16.69
C      14.46       2.52      30.65
C      12.66      14.85      16.86
C       8.88      15.02      17.46
C       8.83      15.15      18.83
C      10.02      15.19      19.54
C      11.29      15.14      18.92
C      11.33      14.90      17.56
C      10.12      14.91      16.79
C      11.10      15.47      21.74
C      10.67      15.90      23.17
C      11.89      15.84      24.03
C       9.57      14.90      23.68
C       8.22      14.64      25.65
C       7.83      15.16      26.90
C       6.94      14.44      27.73
C       6.44      13.25      27.26
C       6.83      12.73      26.02
C       7.70      13.39      25.22
C       6.32      11.43      25.57
C      13.37      13.90      24.70
C      13.88      12.75      24.20
C      14.67      12.03      25.00
C      14.97      12.48      26.25
C      14.48      13.67      26.72
C      13.70      14.43      25.90
C      15.16      10.67      24.54
C      14.84      14.17      28.12
C       8.10      14.41       0.98
C       6.52      15.06      29.03
C      13.06      13.88       0.27
C      11.73      13.29       0.66
C      10.61      14.11       0.68
C       9.34      13.55       1.05
C       9.27      12.20       1.44
C      10.40      11.41       1.39
C      11.60      11.91       1.01
C      11.16       9.08       1.48
C      10.51       7.73       1.69
C      11.58       6.58       1.38
C       9.33       7.58       0.75
C       7.64       5.89       0.14
C       7.17       4.63       0.30
C       6.18       4.06      30.52
C       5.63       4.83      29.53
C       6.05       6.20      29.37
C       7.03       6.73      30.21
C       5.73       2.66      30.69
C       5.51       7.05      28.24
C       8.27      22.17      23.18
C       9.69      20.16      22.97
C       9.64      21.51      23.16
C      10.80      22.30      23.23
C      12.05      21.67      22.99
C      13.33      22.46      22.94
C      12.12      20.24      22.77
C      10.94      19.49      22.83
C      10.09      17.27      23.21
C      13.04       6.03      30.58
C      13.26       4.73      31.00
C      14.24       3.95      30.26
C      14.84       4.45      29.13
C      14.60       5.81      28.71
C      13.66       6.52      29.43
C      15.24       6.33      27.53
C       8.16       7.48       7.96
C      10.66       7.27       8.13
C      11.90       7.27       7.54
C      13.11       6.97       8.35
C      12.03       7.35       6.18
C      10.86       7.53       5.39
C       9.62       7.60       5.95
C      10.00       7.60       3.11
C       9.54       7.45       7.34
C      17.06      15.47      14.32
C       5.01      27.94       0.35
C       3.21      15.62      14.14
C      18.33      15.45      13.54
C      18.28      15.31      12.18
C       0.57      15.28      11.47
C       1.84      15.32      12.08
C       1.88      15.56      13.45
C       0.67      15.55      14.21
C       1.65      15.00       9.26
C       1.22      14.56       7.83
C       2.43      14.63       6.97
C       0.12      15.56       7.32
C      17.67      15.82       5.35
C      17.28      15.31       4.10
C      16.40      16.03       3.28
C      15.89      17.22       3.74
C      16.28      17.74       4.98
C      17.15      17.08       5.79
C      15.77      19.03       5.44
C       3.91      16.57       6.30
C       4.43      17.71       6.80
C       5.22      18.43       6.01
C       5.52      17.99       4.75
C       5.03      16.79       4.28
C       4.25      16.03       5.10
C       5.70      19.79       6.46
C       5.39      16.29       2.88
C      17.55      16.06      30.02
C      15.97      15.40       1.98
C       3.61      16.58      30.74
C       2.28      17.17      30.34
C       1.16      16.35      30.32
C      18.79      16.91      29.95
C      18.72      18.26      29.57
C       0.95      19.05      29.62
C       2.15      18.55      29.99
C       1.70      21.39      29.53
C       1.05      22.73      29.31
C       2.13      23.88      29.62
C      18.78      22.88      30.25
C      17.09      24.57      30.86
C      16.62      25.84      30.70
C      15.63      26.41       0.48
C      15.08      25.64       1.48
C      15.50      24.26       1.64
C      16.48      23.73       0.80
C      15.18      27.80       0.31
C      14.96      23.42       2.77
C      17.72       8.29       7.83
C       0.24      10.31       8.04
C       0.19       8.96       7.85
C       1.35       8.16       7.77
C       2.60       8.79       8.01
C       3.88       8.01       8.06
C       2.67      10.23       8.23
C       1.49      10.97       8.17
C       0.64      13.20       7.79
C       3.59      24.44       0.42
C       3.80      25.73       0.01
C       4.78      26.51       0.74
C       5.39      26.01       1.87
C       5.15      24.65       2.30
C       4.21      23.94       1.57
C       5.79      24.14       3.48
C      17.61      22.99      23.05
C       1.21      23.19      22.88
C       2.45      23.19      23.46
C       3.66      23.49      22.65
C       2.57      23.12      24.82
C       1.41      22.94      25.62
C       0.17      22.86      25.05
C       0.55      22.86      27.89
C       0.09      23.02      23.67
O       7.74      30.29       0.08
O       6.55      30.20      29.18
O      13.67      30.13      28.92
O      12.61      30.08      30.95
O      15.21      17.11      16.69
O      13.92      17.26      14.85
O       6.71      26.18      22.04
O       5.43      26.09      20.21
O       4.97      21.70      19.22
O       5.53      23.49      18.14
O       7.28       6.25      23.57
O       8.24       8.18      23.16
O       5.13      17.28      16.70
O       6.17      17.31      14.71
O       7.19      22.72       8.32
O       8.08      22.78       6.27
O      14.21      22.01       7.80
O      13.01      22.08       5.88
O      15.90      20.85      19.78
O      15.14      22.82      19.22
O      15.22      25.73      23.32
O      15.39      24.98      21.15
O      14.33       0.04      18.03
O      15.58      28.64      17.70
O      13.03      30.34      15.51
O      14.06      28.36      15.25
O       7.01      29.01      14.26
O       8.23       0.40      14.82
O       5.87      29.43      16.72
O       6.86       0.96      17.20
O      11.10       2.92      23.89
O       8.73      21.51      14.56
O      12.10      22.11      15.39
O      10.17      25.33      13.71
O      11.12      22.88      11.50
O      12.45      29.73      22.71
O       9.16       0.16      21.51
O       9.85       0.26      25.60
O      14.18       6.92      24.44
O      13.49       8.09      22.70
O       6.50      23.46      20.92
O      17.19       0.17      30.92
O      16.00       0.27       1.83
O       4.22       0.33       2.08
O       3.16       0.39       0.05
O       5.76      13.36      14.32
O       4.46      13.20      16.16
O      16.16       4.29       8.96
O      14.89       4.38      10.79
O      14.42       8.77      11.79
O      14.98       6.97      12.86
O      16.73      24.22       7.44
O      17.69      22.29       7.84
O      14.58      13.18      14.30
O      15.62      13.15      16.30
O      16.64       7.74      22.68
O      17.53       7.69      24.73
O       4.76       8.45      23.20
O       3.56       8.38      25.12
O       6.45       9.61      11.22
O       5.69       7.64      11.78
O       5.77       4.73       7.69
O       5.94       5.48       9.85
O       4.88      30.43      12.98
O       6.13       1.83      13.30
O       3.58       0.12      15.49
O       4.61       2.11      15.75
O      16.46       1.45      16.74
O      17.68      30.06      16.19
O      15.32       1.03      14.28
O      16.31      29.50      13.81
O       1.65      27.54       7.11
O      18.18       8.96      16.45
O       2.65       8.35      15.62
O       0.72       5.13      17.30
O       1.67       7.58      19.50
O       2.99       0.74       8.29
O      18.61      30.30       9.49
O       0.40      30.20       5.40
O       4.73      23.55       6.57
O       4.04      22.38       8.30
O      15.95       7.00      10.08
O       7.74      15.06      15.42
O       6.55      14.97      17.33
O      13.67      14.90      17.58
O      12.61      14.84      15.56
O      15.21       1.87      29.82
O      13.92       2.03       0.66
O       6.71      10.94      24.46
O       5.43      10.85      26.29
O       4.97       6.46      27.29
O       5.53       8.26      28.36
O       7.28      21.48      22.94
O       8.24      23.41      23.34
O       5.13       2.05      29.80
O       6.17       2.08       0.79
O       7.19       7.49       7.18
O       8.08       7.55       9.23
O      14.21       6.78       7.70
O      13.01       6.85       9.62
O      15.90       5.62      26.72
O      15.14       7.59      27.29
O      15.22      10.50      23.19
O      15.39       9.75      25.35
O      14.33      15.27      28.48
O      15.58      13.41      28.80
O      13.03      15.11      30.99
O      14.06      13.12       0.25
O       7.01      13.78       1.24
O       8.23      15.63       0.68
O       5.87      14.20      29.78
O       6.86      16.19      29.31
O      11.10      18.16      22.61
O       8.73       6.28       0.95
O      12.10       6.88       0.12
O      10.17      10.10       1.80
O      11.12       7.65       4.00
O      12.45      14.49      23.79
O       9.16      15.39      24.99
O       9.85      15.50      20.90
O      14.18      22.15      22.07
O      13.49      23.32      23.80
O       6.50       8.23      25.58
O      17.19      15.40      15.58
O      16.00      15.50      13.67
O       4.22      15.56      13.42
O       3.16      15.62      15.45
O       5.76      28.59       1.18
O       4.46      28.43      30.35
O      16.16      19.52       6.54
O      14.89      19.61       4.71
O      14.42      24.00       3.72
O      14.98      22.20       2.64
O      16.73       8.98       8.06
O      17.69       7.06       7.66
O      14.58      28.41       1.20
O      15.62      28.38      30.21
O      16.64      22.97      23.83
O      17.53      22.92      21.77
O       4.76      23.69      23.30
O       3.56      23.62      21.39
O       6.45      24.85       4.28
O       5.69      22.87       3.72
O       5.77      19.96       7.82
O       5.94      20.72       5.65
O       4.88      15.20       2.52
O       6.13      17.06       2.20
O       3.58      15.35       0.01
O       4.61      17.34      30.75
O      16.46      16.68      29.76
O      17.68      14.83      30.32
O      15.32      16.27       1.22
O      16.31      14.27       1.70
O       1.65      12.31       8.39
O      18.18      24.19      30.06
O       2.65      23.58      30.89
O       0.72      20.36      29.21
O       1.67      22.81      27.00
O       2.99      15.97       7.21
O      18.61      15.07       6.01
O       0.40      14.97      10.10
O       4.73       8.31       8.93
O       4.04       7.15       7.20
O      15.95      22.23       5.42
