35

O       2.85       8.67       3.15
O       3.66       8.31       1.07
O       6.26      11.85      -1.04
O       7.46      13.28       0.21
O       5.51      12.45       4.92
O       5.80      14.73       4.34
O       1.46      13.47       6.83
O       0.05      15.07       6.21
O       1.63      18.89       3.49
O       3.63      18.69       2.47
H       4.17      10.46       4.29
H       5.08      10.20       0.34
H       6.74      13.14       2.63
H       7.21      13.47       4.91
H       6.20      13.90       6.08
H       3.74      13.83       5.82
H       1.17      16.85       4.91
H       4.93      16.84       3.35
C       5.47      11.91       3.64
C       4.64      10.79       3.53
C       4.50      10.15       2.30
C       5.17      10.64       1.18
C       5.97      11.77       1.29
C       6.15      12.40       2.54
C       3.60       8.95       2.16
C       6.62      12.34       0.06
C       6.26      13.65       5.13
C       4.53      15.24       4.57
C       3.55      14.64       5.35
C       2.29      15.24       5.46
C       2.02      16.44       4.81
C       3.00      17.04       4.02
C       4.26      16.44       3.89
C       1.21      14.52       6.24
C       2.73      18.30       3.27
