35

H       7.08       3.88       5.91
H       6.17       3.62       9.86
H       4.52       6.56       7.57
H       4.05       6.89       5.29
H       5.05       7.31       4.12
H       7.51       7.24       4.38
H      10.09      10.26       5.28
H       6.33      10.25       6.85
C       5.79       5.32       6.56
C       6.62       4.20       6.67
C       6.75       3.56       7.90
C       6.08       4.05       9.02
C       5.28       5.18       8.91
C       5.10       5.81       7.66
C       7.65       2.36       8.04
C       4.64       5.75      10.14
C       5.00       7.06       5.07
C       6.73       8.66       5.63
C       7.70       8.05       4.84
C       8.96       8.65       4.74
C       9.24       9.85       5.38
C       8.26      10.45       6.18
C       6.99       9.85       6.30
C      10.05       7.93       3.95
C       8.53      11.71       6.93
O       8.41       2.08       7.05
O       7.60       1.73       9.12
O       5.00       5.27      11.24
O       3.80       6.69       9.99
O       5.75       5.87       5.28
O       5.46       8.15       5.85
O       9.79       6.88       3.37
O      11.21       8.48       3.99
O       9.62      12.30       6.71
O       7.63      12.10       7.73
