40

Gd       0.13       6.84       2.43
Gd       3.93       7.47      -0.01
Gd       0.00       4.52      -2.43
Gd      -3.80       3.89       0.01
C       2.83       5.07       1.34
C       7.05       6.29      -1.34
S      -0.32       3.47       1.01
S      -1.30       6.59      -5.14
S       5.33       9.18      -2.88
S      -3.45       6.51       2.62
S       0.45       7.89      -1.01
S       1.42       4.78       5.14
S      -5.20       2.19       2.88
S       3.58       4.85      -2.62
S       2.57       9.59       2.57
S      -2.44       1.77      -2.57
O      -0.27       4.66       1.93
O      -1.73       3.08       0.77
O       0.38       3.82      -0.27
O       1.58       8.51       2.91
O      -0.71       5.41      -4.41
O      -2.12       7.18       2.83
O       3.92       5.01       0.70
O      -4.37       7.42       1.87
O       4.61       9.00      -1.58
O       2.19       6.18       1.36
O       3.30       9.28       1.32
O      -3.24       5.21       1.91
O       0.40       6.70      -1.93
O       1.85       8.29      -0.77
O      -0.26       7.54       0.27
O      -1.45       2.85      -2.91
O       0.83       5.95       4.41
O       2.25       4.18      -2.83
O       5.96       6.36      -0.70
O      -5.26       3.94      -1.87
O      -4.49       2.36       1.58
O      -2.06       5.18      -1.36
O      -3.17       2.08      -1.32
O       3.37       6.15      -1.91
