70

H       5.49       1.76       3.69
H       2.86      -1.60       6.21
H       2.71      -1.51       3.74
H      10.47       0.32      14.87
H      -0.36      -1.57      15.02
H       5.80       1.54       6.14
H       9.38       0.86      12.61
H       6.46       1.86      15.60
H       0.65      -5.92      17.21
H       4.71       0.74      14.27
H       3.74      -3.09      15.64
H      11.99       1.08      16.69
H       9.54       4.56      17.31
H       5.48      -2.03      14.25
H       0.74      -1.97      12.77
H       2.26      -4.94      15.61
H       2.47      -0.87      11.39
H       4.65      -2.60      10.26
H       7.98       3.76      15.56
H      -1.94      -2.53      16.69
H       5.22       1.64      10.62
H       7.63      -0.29      11.28
H       4.87       1.90       8.18
H       4.34      -2.36       7.81
C       4.94       1.01       4.25
C       4.10       0.12       3.55
C       3.46      -0.89       5.66
C       3.36      -0.82       4.28
C      -1.63      -4.82      18.12
C       4.36      -0.06       6.36
C      10.27       1.25      15.40
C       9.09       1.97      15.12
C       2.10      -2.60      14.32
C      -0.14      -2.53      15.49
C      -0.74      -4.27      17.06
C      11.73       3.18      18.28
C       8.06       1.42      14.21
C       4.05       0.15       2.06
C      10.84       2.84      17.15
C       4.09      -1.34      12.74
C       5.09       0.90       5.62
C       8.36       0.84      12.97
C       6.72       1.40      14.65
C       1.07      -3.19      15.20
C       0.44      -4.96      16.74
C       5.73       0.76      13.91
C       3.46      -2.62      14.70
C      11.12       1.67      16.41
C       9.73       3.62      16.80
C       4.94      -0.50      10.60
C       4.44      -2.02      13.92
C       1.77      -1.98      13.10
C       6.06       0.11      12.71
C       1.34      -4.41      15.84
C       2.75      -1.36      12.32
C       4.69      -1.62       9.79
C       8.86       3.18      15.81
C      -1.03      -3.06      16.42
C       4.56      -0.21       7.81
C       5.03       0.77      10.00
C       7.38       0.19      12.23
C       4.84       0.91       8.62
C       4.50      -1.47       8.42
N       5.08      -0.64      12.00
O      12.67       2.39      18.61
O      11.59       4.31      18.95
O      -2.56      -4.11      18.60
O      -1.40      -6.04      18.49
O       4.16       1.27       1.47
O       3.92      -0.98       1.48
