25

Cd      17.08      13.89       7.32
Cd      16.29      11.94       4.03
Cd      15.43       9.73       1.04
C      17.87      12.67      10.26
C      18.48      14.89      10.01
C      12.98       9.13      -0.89
C      14.46      10.58      -1.94
C      15.10      11.94       6.94
C      18.93      11.73       5.68
C      16.95      16.59       7.07
C      13.72      12.12       2.49
C      17.50      11.60       1.10
C      15.66       7.05       1.29
N      17.82      13.81       9.55
N      14.12       9.85      -0.86
O      15.46      12.76       5.98
O      17.98      11.09       5.09
O      18.84      12.88       6.21
O      15.91      15.85       6.93
O      18.11      16.11       7.28
O      14.67      12.88       2.93
O      13.82      10.87       2.27
O      17.09      10.90       2.14
O      16.58       7.71       0.70
O      14.63       7.63       1.79
