25

Cd      14.52       5.32       8.81
Cd      15.31       7.27      12.11
Cd      16.17       9.48      15.09
C      14.10       7.61      15.03
C      15.94      12.16      14.84
N      13.79       5.39       6.58
C      13.73       6.54       5.87
N      17.48       9.36      16.99
C      13.12       4.32       6.12
O      16.14       6.44      10.15
O      13.62       8.12      11.04
O      12.76       6.33       9.92
O      15.69       3.36       9.20
O      13.49       3.10       8.85
C      16.50       7.26       9.19
O      16.93       6.33      13.20
O      17.78       8.33      13.86
O      14.51       8.31      13.99
O      15.02      11.50      15.43
O      16.97      11.57      14.34
C      18.62      10.08      17.02
C      17.14       8.63      18.07
C      12.67       7.48      10.45
C      14.65       2.62       9.07
C      17.88       7.09      13.64
