32

O       7.56      11.46      10.23
C       3.94      20.68       5.82
C       5.92      19.37       7.30
C       4.33      17.34       7.47
O       2.84      11.31       9.60
O       3.24      16.83       7.19
H       7.08      21.17       7.03
O       4.46      23.23       4.86
H       3.04      15.17       8.70
H       6.71      18.89       7.88
O       6.41      23.36       6.02
C       5.21      12.68       9.58
H       7.38      15.21       8.90
O       1.67      13.25       9.81
C       7.70      12.65       9.83
H       5.21      11.64       9.90
C       4.70      18.72       7.03
H       2.78      18.88       6.09
C       6.43      14.69       9.02
H       6.20      17.09       8.32
C       5.16      21.32       6.09
H       3.19      21.21       5.24
C       5.21      15.33       8.70
C       2.72      12.57       9.59
C       3.98      14.66       8.89
C       6.43      13.37       9.45
C       6.15      20.66       6.83
C       4.00      13.33       9.32
C       3.71      19.39       6.28
C       5.35      22.73       5.61
N       5.29      16.65       8.22
O       8.79      13.31       9.74
