32

O       9.17      20.62      23.13
C       8.79      24.46      33.05
C      12.49      24.58      33.83
C       7.51      24.76      33.78
C       9.42      22.36      27.02
O      11.25      21.44      22.71
O      12.39      24.50      35.10
C      10.01      23.88      31.03
O       7.60      24.89      35.04
C       8.79      24.10      31.71
O       6.45      24.88      33.07
H       7.83      24.03      31.18
H      12.33      22.52      24.46
O      13.54      24.84      33.15
H      12.18      23.91      31.19
C      10.22      21.24      23.46
H       8.34      21.33      25.45
H      10.01      24.85      34.79
H       9.01      23.27      29.35
H      12.61      23.51      26.75
C      11.23      24.04      31.71
C      10.98      23.50      28.75
H       8.58      22.30      27.71
C      10.33      21.84      24.83
C       9.27      21.80      25.75
C      11.53      22.48      25.19
N       9.94      23.51      29.68
C      10.00      24.58      33.74
C      11.68      23.03      26.45
C      10.64      22.96      27.39
C      11.22      24.38      33.06
O      12.11      23.90      29.02
