32

O       8.70       9.46      13.72
O       2.76       9.52      11.84
C       2.67       9.39      13.09
H       7.34       8.53      15.68
C       6.39       8.67      15.16
C       5.17       8.51      15.84
H       3.74       6.92      19.16
O       6.41       6.06      24.16
C       3.95       9.09      13.82
O       1.61       9.50      13.80
O       7.55       9.12      11.78
O       4.33       5.24      23.74
H       2.99       8.65      15.69
C       7.65       9.20      13.04
H       5.17       9.48      12.08
H       3.49       5.95      21.42
C       3.95       8.73      15.17
H       4.17       7.89      17.53
C       6.38       9.00      13.81
C       4.43       6.43      21.13
C       6.14       8.12      18.13
C       6.84       7.65      20.42
H       7.49       7.14      22.41
C       4.58       6.98      19.85
H       7.77       8.13      20.12
C       6.69       7.10      21.68
N       5.10       8.13      17.19
C       5.38       5.86      23.41
C       5.80       7.59      19.48
C       5.16       9.20      13.13
C       5.49       6.47      22.04
O       7.27       8.52      17.85
