32

C       5.97      11.36      24.96
O       2.12      19.30      21.02
C       3.25      17.39      21.80
O       0.89      17.44      21.51
C       6.96      18.18      21.66
O       8.02      17.50      21.44
C       5.69      17.42      21.92
H       6.64      15.59      22.54
O       6.44      13.92      24.05
O       3.28       7.40      25.23
H       6.49       9.54      26.01
H       4.47      19.11      21.35
O       6.84      19.45      21.64
H       2.30      15.55      22.34
C       1.98      18.10      21.42
C       4.47      15.42      22.55
C       3.53      10.10      24.42
C       5.35      13.42      23.77
H       2.60       9.58      24.22
H       6.91      11.88      25.16
H       3.48      13.67      22.93
H       2.97      11.87      23.37
C       5.70      16.10      22.36
C       3.25      16.07      22.23
C       4.52       9.43      25.16
C       4.33       8.02      25.64
N       4.39      14.11      23.03
C       4.98      12.04      24.22
C       3.76      11.39      23.95
O       5.22       7.52      26.38
C       4.47      18.08      21.67
C       5.74      10.07      25.43
