16

O      17.70       9.63       8.14
C      17.77       8.68       9.00
C      16.11       7.32       7.66
C      16.82       6.50       9.83
C      14.33       4.04       8.34
C      16.90       7.47       8.81
C      15.98       5.39       9.69
H      15.92       4.64      10.47
C      15.27       6.22       7.52
H      14.66       6.09       6.63
C      15.20       5.24       8.53
O      13.58       3.98       7.32
O      14.40       3.09       9.20
H      16.18       8.08       6.88
H      17.44       6.62      10.72
O      18.52       8.74      10.02
