11

Zn       4.50      -3.66       9.71
N       3.87      -2.02       8.65
C       3.62      -2.16       7.33
N       6.88      -2.52       8.35
N       6.44      -3.55       9.11
C       4.08      -6.35       9.22
C       4.12      -0.79       9.14
C       7.55      -4.17       9.59
C       5.09      -2.79      12.31
O       3.58      -5.19       8.90
O       4.48      -3.74      11.66
