20

H       0.58       9.05       6.58
H       0.52       6.87       5.36
O      -0.38      10.95       7.74
O      -2.24      10.38       8.91
O      -3.99       8.04       9.05
O      -4.59       9.58       7.47
O      -4.43       5.61       7.14
O      -4.66       6.47       5.03
O      -2.29       5.40       3.76
O      -0.88       4.39       5.22
C      -0.34       8.47       6.52
C      -1.47       8.92       7.21
C      -1.36      10.19       8.02
C      -2.68       8.19       7.13
C      -2.76       7.05       6.31
C      -4.08       6.31       6.14
C      -1.60       6.59       5.66
C      -1.60       5.34       4.82
C      -0.39       7.28       5.80
C      -3.87       8.64       7.96
