20

O       6.28       3.15      15.68
O       8.17       2.62      16.80
O       9.86       0.27      17.00
O      10.53       1.74      15.40
O      10.33      -2.21      15.08
O      10.55      -1.36      12.97
O       8.18      -2.42      11.70
O       6.76      -3.44      13.17
H       5.33       1.26      14.51
H       5.37      -0.93      13.30
C       6.25       0.68      14.45
C       7.38       1.13      15.14
C       7.28       2.40      15.94
C       8.59       0.39      15.06
C       8.65      -0.76      14.25
C       9.97      -1.51      14.08
C       7.50      -1.22      13.60
C       7.49      -2.48      12.76
C       6.28      -0.53      13.74
C       9.78       0.84      15.89
