20

O       0.88      11.20      10.66
H      -0.58       6.53       9.30
H      -0.52       8.71      10.52
C       0.34       7.11       9.36
C       1.47       6.66       8.67
C       1.36       5.39       7.86
C       2.68       7.40       8.75
C       2.76       8.54       9.57
C       4.08       9.28       9.74
C       1.60       8.99      10.22
C       1.60      10.24      11.06
C       0.39       8.31      10.08
C       3.87       6.94       7.92
O       0.38       4.63       8.14
O       2.24       5.20       6.97
O       3.99       7.54       6.83
O       4.59       6.01       8.41
O       4.43       9.98       8.74
O       4.66       9.12      10.84
O       2.29      10.18      12.12
