20

H       6.49      14.32       1.37
H       6.45      16.51       2.58
O       5.55      12.43       0.20
O       3.65      12.96      -0.92
O       1.96      15.32      -1.12
O       1.29      13.84       0.48
O       1.50      17.80       0.80
O       1.28      16.94       2.91
O       3.65      18.01       4.18
O       5.06      19.02       2.71
C       5.57      14.91       1.43
C       4.44      14.46       0.74
C       4.55      13.18      -0.06
C       3.24      15.20       0.82
C       3.17      16.35       1.63
C       1.86      17.10       1.80
C       4.33      16.81       2.28
C       4.33      18.06       3.12
C       5.54      16.11       2.14
C       2.05      14.75      -0.01
