20

H       0.58       6.53      14.52
H       0.52       8.71      13.30
C      -0.34       7.11      14.46
C      -1.47       6.66      15.15
C      -1.36       5.39      15.96
C      -2.68       7.40      15.07
C      -2.76       8.54      14.25
C      -4.08       9.28      14.08
C      -1.60       8.99      13.60
C      -1.60      10.24      12.76
C      -0.39       8.31      13.74
C      -3.87       6.94      15.90
O      -0.38       4.63      15.67
O      -2.24       5.20      16.85
O      -3.99       7.54      16.99
O      -4.59       6.01      15.41
O      -4.43       9.98      15.08
O      -4.66       9.12      12.97
O      -2.29      10.18      11.70
O      -0.88      11.20      13.16
