20

O       0.38      10.95       0.20
O       2.24      10.38      -0.97
O       3.99       8.04      -1.11
O       4.59       9.58       0.47
H      -0.58       9.05       1.36
O       4.66       6.47       2.90
O       2.29       5.40       4.18
O       0.88       4.39       2.72
O       4.43       5.61       0.80
H      -0.52       6.87       2.58
C       0.34       8.47       1.42
C       1.47       8.92       0.73
C       1.36      10.19      -0.08
C       2.68       8.19       0.81
C       2.76       7.05       1.63
C       4.08       6.31       1.80
C       1.60       6.59       2.28
C       1.60       5.34       3.12
C       0.39       7.28       2.14
C       3.87       8.64      -0.02
