38

C      17.90       4.48      12.32
C      17.35       7.40      13.16
C      20.64       4.52       8.99
C      18.45       2.09      12.78
C      19.67       4.50      10.11
O      17.76       2.20      13.86
O      18.97       1.00      12.35
O      21.23       3.40       8.71
O      20.84       5.63       8.39
H      20.05       2.44      10.62
H      19.10       6.58       9.87
H      17.21       4.46      13.15
H      18.05       7.09      13.93
O      11.19       8.78      13.86
O       9.98       9.99      12.35
O      12.38      12.24       8.71
O      14.62      11.86       8.39
C      12.30       9.65      11.98
C      12.31      10.51      10.88
C      14.65       9.96      10.45
C      14.61       9.10      11.54
C      13.46       8.92      12.32
C      16.38       8.37      13.16
C      13.50      11.66       8.99
H      15.56      10.12       9.87
C      13.48      10.69      10.11
H      16.07       9.07      13.93
H      13.44       8.23      13.15
H      11.42      11.07      10.62
C      11.07       9.47      12.78
H      16.01       7.03      10.20
C      16.36       7.38      11.16
N      17.35       6.81      11.91
N      15.79       8.37      11.91
C      18.63       3.32      11.98
C      19.49       3.33      10.88
C      18.95       5.67      10.45
C      18.08       5.63      11.54
