26

H       8.50       0.72       0.62
H       7.17       4.45       1.80
H       8.64      -0.07       2.99
H       7.23       3.83       4.20
H       8.28       0.35       5.33
H       8.74       1.99       5.78
H       6.09       2.29      10.61
H       7.42      -1.44       9.43
H       5.95       3.08       8.24
H       7.37      -0.81       7.02
H       6.31       2.67       5.90
H       5.85       1.02       5.45
C       8.24       1.38       1.45
C       7.48       3.46       2.11
C       8.30       0.94       2.77
C       7.51       3.10       3.45
C       7.93       1.81       3.81
C       7.97       1.40       5.26
C       6.35       1.64       9.78
C       7.11      -0.45       9.12
C       6.29       2.07       8.46
C       7.08      -0.08       7.78
C       6.66       1.20       7.42
C       6.62       1.61       5.97
N       7.84       2.62       1.12
N       6.75       0.39      10.11
