26

H      12.37       4.59       5.00
H       8.65       5.93       3.81
H      13.16       4.45       2.63
H       9.27       5.87       1.41
H      12.75       4.81       0.29
H      11.11       4.35      -0.16
H      10.82       6.99      -5.00
H      14.55       5.66      -3.81
H      10.03       7.14      -2.63
H      13.92       5.72      -1.41
H      10.44       6.78      -0.29
H      12.08       7.24       0.16
C      11.72       4.85       4.17
C       9.64       5.62       3.50
C      12.15       4.79       2.84
C      10.00       5.59       2.16
C      11.29       5.16       1.81
C      11.70       5.12       0.36
C      11.47       6.73      -4.17
C      13.55       5.97      -3.50
C      11.04       6.79      -2.84
C      13.19       6.00      -2.17
C      11.90       6.42      -1.81
C      11.49       6.47      -0.36
N      10.47       5.25       4.50
N      12.72       6.33      -4.50
