16

N       9.63       8.02       6.33
H      12.13       8.09       5.49
H       8.85       9.39       2.00
H      11.28       9.29       1.45
C       7.65       8.91       4.36
O       7.25       9.04       5.56
O      14.14       8.44       4.06
C      10.05       8.46       5.06
O      13.62       8.71       1.86
C       9.11       8.83       4.06
O       6.82       8.87       3.37
C      11.42       8.41       4.73
C       9.58       9.12       2.77
C      11.86       8.71       3.44
C      10.93       9.06       2.45
C      13.33       8.61       3.10
