16

H       2.48       6.51       5.74
H       5.76       5.21       9.22
H       3.33       5.31       9.78
C       1.29       5.99       8.13
C       6.96       5.69       6.87
N       4.98       6.58       4.90
C       4.56       6.14       6.17
C       5.50       5.77       7.16
C       3.19       6.19       6.50
C       5.03       5.48       8.46
C       2.75       5.89       7.79
C       3.68       5.54       8.78
O       7.36       5.56       5.67
O       7.79       5.74       7.85
O       0.47       6.16       7.17
O       0.99       5.89       9.37
