34

H       5.30       8.74       6.33
H       8.49      12.01       6.34
H       9.32      12.87      10.46
H       6.50       9.75       9.43
H       9.97      12.95      17.84
H       6.78       9.69      17.83
H       5.95       8.83      13.71
H       8.77      11.95      14.74
C       8.32      11.80       7.39
C       8.78      12.29       9.72
C       7.42      10.80       7.78
C       8.99      12.55       8.36
C       9.97      13.61       7.92
C       7.20      10.53       9.14
C       7.71      10.98      11.50
C       7.89      11.27      10.12
C       6.69      10.07       6.72
C       6.95       9.90      16.78
C       6.49       9.40      14.46
C       7.85      10.90      16.39
C       6.28       9.15      15.81
C       5.30       8.09      16.26
C       8.07      11.17      15.04
C       7.56      10.72      12.68
C       7.38      10.43      14.05
C       8.58      11.63      17.45
O      10.40      14.44       8.80
O      10.28      13.61       6.69
O       5.87       9.13       7.13
O       6.83      10.37       5.51
O       4.87       7.26      15.37
O       4.99       8.09      17.49
O       9.40      12.57      17.04
O       8.44      11.33      18.66
