26

Zn       9.60      16.39      10.50
Zn       9.83      18.16       7.63
Zn      11.20      19.06      10.20
Zn      10.32      17.67      13.15
H       8.69      18.90       9.83
H      11.91      16.78      11.37
O       9.57      15.90      13.60
O       9.98      14.67      11.74
O       9.45      18.32       9.60
O       8.96      16.45       7.12
O       7.78      16.48      11.21
O       9.66      15.24       8.92
O       8.29      18.22      12.57
O      10.95      19.70       7.05
O      11.02      20.82       9.04
O      11.09      17.33      11.34
O      10.51      19.65      13.51
O      12.80      18.43       9.19
O      11.65      20.29      11.65
O      11.60      16.97       7.92
C      10.86      20.59      12.65
C      12.75      17.42       8.35
C      10.02      14.80      13.05
C       8.80      15.44       7.94
C       7.43      17.31      12.16
C      11.00      20.83       7.73
