26

Zn      -4.16      16.84      29.04
Zn      -4.11      14.81      26.23
Zn      -6.04      14.44      28.63
Zn      -5.11      15.57      31.70
H      -3.56      14.25      28.62
H      -6.47      16.68      29.89
O      -4.47      17.35      32.26
O      -4.38      18.57      30.32
O      -4.18      14.90      28.19
O      -3.82      16.70      25.62
O      -2.36      16.56      29.70
O      -4.14      18.00      27.47
O      -2.98      15.19      31.39
O      -4.41      12.90      25.93
O      -6.29      12.80      27.26
O      -5.71      16.05      29.88
O      -5.22      13.55      31.71
O      -7.34      15.49      27.63
O      -6.76      13.25      30.02
O      -6.20      15.14      25.69
C      -6.05      12.78      31.03
C      -7.12      15.79      26.37
C      -4.77      18.44      31.58
C      -3.43      17.68      26.41
C      -2.16      16.10      30.91
C      -5.41      12.22      26.47
