16

C       0.29       1.59       4.25
C       0.03       1.93       5.59
C      -0.15       0.16       2.24
C      -1.61       0.16       5.74
C      -0.40       0.53       3.67
C      -0.93       1.22       6.33
C      -1.35      -0.19       4.41
C       0.81       3.03       6.23
H      -2.35      -0.41       6.30
H      -1.11       1.52       7.37
O       0.34       3.65       7.24
H       1.03       2.15       3.68
O       1.97       3.32       5.76
O       0.89       0.58       1.67
O      -1.01      -0.59       1.67
H      -1.87      -1.02       3.95
