34

C       6.04       7.46      17.03
Cd       3.39       5.29      17.27
Cd       0.24       7.25      16.39
Cd       9.54       4.93      16.33
Cd       6.34       2.80      16.99
C       1.32       8.61      19.32
O      -1.29       8.79      15.59
O      10.52       6.72      15.25
O       4.75       1.38      16.01
O       4.27       3.51      16.02
O       7.95       3.30      15.44
O       9.40       4.16      14.08
O       0.88       7.02      14.04
O       2.39       6.52      15.56
C      10.29       7.96      15.12
N      11.61       4.00      16.81
N       0.26       4.87      16.75
N       1.30       4.31      17.30
N       0.99       3.07      17.73
C       3.95       2.30      15.72
N       5.44       6.24      17.01
N       6.43       5.35      16.80
N       7.56       6.01      16.72
N       7.35       7.33      16.87
N       1.34       7.71      18.33
N       2.50       7.04      18.53
N       3.10       7.49      19.58
C       8.39       3.46      14.27
N       7.99       2.58      19.77
N       7.92       3.13      18.55
C      -0.29       2.92      17.41
N       9.73       3.92      19.47
C       2.05       6.62      14.33
N       8.96       3.92      18.37
