34

Cd       5.95      15.49      15.48
Cd       2.80      13.53      14.60
Cd       9.03      13.18      15.54
C       2.24      10.54      16.15
N      10.58      10.83      12.10
N      10.65      11.37      13.32
N       9.61      12.17      13.50
N       8.84      12.16      12.40
C      10.18      11.71      17.60
Cd      -0.15      11.05      14.88
O       5.31      15.26      17.83
O       3.80      14.77      16.30
O       7.48      17.04      16.28
O       8.05      14.96      16.62
O       1.44       9.62      15.86
O       1.92      11.75      15.85
O      10.62      11.54      16.43
O       9.17      12.41      17.79
N       6.96      12.24      15.06
N       5.93      13.11      15.12
N       4.89      12.55      14.57
N       5.20      11.31      14.14
C       6.48      11.16      14.46
C       4.14      14.87      17.53
N      -0.24      13.59      15.07
N       0.75      14.48      14.86
N      11.01      14.25      15.15
N       4.85      15.95      13.54
N       3.69      15.28      13.34
N       3.09      15.73      12.28
N      11.22      15.58      15.00
C       0.15      15.71      14.84
C       4.87      16.86      12.55
C       8.28      16.21      16.75
