38

H       9.25       4.46       3.45
H       9.85       6.67       4.41
H       8.10       7.31       6.15
H       8.97       7.62       8.45
H      11.05      11.17       7.19
H      10.15      10.90       4.90
C       8.04      12.41       1.67
C       8.62      11.25       1.14
C       8.78      10.11       1.93
C       8.32      10.12       3.26
C       7.70      11.26       3.78
C       7.58      12.41       2.99
C       8.16       7.69       3.53
C       7.02       7.54       2.72
C       6.70       6.30       2.18
C       7.48       5.17       2.45
C       8.62       5.32       3.26
C       8.96       6.56       3.79
C       9.05       9.09       5.36
C       8.75       8.16       6.38
C       9.24       8.32       7.66
C      10.07       9.42       7.97
C      10.39      10.34       6.96
C       9.89      10.18       5.67
C      10.63       9.59       9.32
C       7.13       3.82       1.90
N       8.50       8.96       4.07
O      10.12       8.87      10.27
O      11.57      10.44       9.47
O       6.09       3.65       1.21
O       7.98       2.91       2.23
H       7.95      13.31       1.06
H       8.98      11.25       0.11
H       9.25       9.22       1.54
H       7.33      11.24       4.80
H       7.13      13.30       3.41
H       6.40       8.41       2.51
H       5.81       6.19       1.55
