38

N       1.15      10.57      21.49
H       1.70       6.22      24.50
H       0.68       8.28      25.45
H       0.40      10.31      24.02
H       2.33       8.29      20.76
H       2.53       6.23      22.15
H       3.26      11.12      23.05
H       3.84      13.34      24.01
C       1.62       7.12      23.89
C       1.03       8.27      24.42
C       0.88       9.41      23.63
C       1.34       9.41      22.30
C       1.95       8.27      21.78
C       2.07       7.12      22.57
C       1.50      11.84      22.03
C       2.63      11.99      22.84
C       2.96      13.23      23.38
H      -0.19      12.86      21.15
C       1.03      14.20      22.30
C       0.70      12.97      21.77
C       0.61      10.44      20.20
C       0.91      11.37      19.18
C       2.18      14.36      23.11
C       0.42      11.20      17.90
C      -0.73       9.19      18.60
C      -0.23       9.35      19.89
C      -0.41      10.11      17.59
C       2.53      15.70      23.66
H       0.41      15.07      22.11
C      -0.97       9.93      16.24
O      -0.46      10.66      15.29
O      -1.92       9.09      16.09
O       3.57      15.87      24.35
H       1.55      12.22      19.41
O       1.68      16.62      23.33
H       0.69      11.91      17.11
H      -1.39       8.36      18.36
H      -0.50       8.63      20.66
