44

H      16.88       2.53      14.74
H      13.36       4.12      16.70
H      13.05       5.60      14.69
H      14.62       5.39      12.78
H      17.73       1.35      18.40
H      17.94       1.72      16.68
H      17.79       3.04      17.84
H      14.95       2.09      19.77
H      15.02       3.73      19.12
Si      15.56       2.05      17.35
H      13.61       2.72      18.80
H      13.88       0.32      16.83
H      15.15      -0.34      17.83
Si      15.05      -2.05      15.30
C      15.99       3.16      14.77
C      15.16       3.17      15.89
C      14.05       4.06      15.86
C      13.87       4.88      14.75
C      14.74       4.78      13.66
C      17.42       2.04      17.59
C      14.70       2.71      18.89
C      14.97       0.30      16.95
H      13.72      -2.54      17.90
H      17.26      -4.11      15.97
H      17.56      -5.60      17.98
H      15.98      -5.39      19.88
H      12.89      -1.35      14.25
H      12.67      -1.72      15.96
H      12.82      -3.04      14.81
H      15.67      -2.09      12.88
H      15.59      -3.74      13.54
H      17.01      -2.72      13.86
H      16.74      -0.33      15.83
H      15.46       0.34      14.82
C      14.61      -3.17      17.87
C      15.45      -3.17      16.76
C      16.56      -4.06      16.80
C      16.73      -4.88      17.91
C      15.86      -4.78      18.99
C      13.19      -2.04      15.05
C      15.91      -2.71      13.76
C      15.64      -0.30      15.70
N      15.82       3.93      13.67
N      14.78      -3.94      18.98
