44

Si       7.35       7.14       6.11
Si       7.86       9.18      10.22
C       8.30       6.61      11.33
C       7.46       7.72      11.33
C       6.35       7.68      12.22
C       6.18       6.57      13.05
C       7.06       5.49      12.95
C       9.72       9.43      10.20
C       7.00      10.72      10.87
C       7.26       8.78       8.47
H       6.03       9.74       5.63
H       9.55       7.79       4.04
H       9.85       9.80       2.56
H       8.28      11.71       2.77
H       5.18       6.09       6.81
H       4.96       7.80       6.44
H       5.11       6.65       5.12
H       7.96       4.72       6.07
H       7.88       5.37       4.42
H       9.30       5.69       5.44
H       9.03       7.66       7.84
H       7.76       6.65       8.50
N       7.09      10.82       4.23
N       8.13       5.50      12.10
H       9.19       6.58      10.70
H       5.66       8.52      12.28
H       5.36       6.51      13.76
H       6.94       4.60      13.56
H      10.02      10.23       9.52
H      10.24       8.52       9.88
H      10.10       9.67      11.20
H       7.24      11.60      10.26
H       7.32      10.94      11.90
H       5.91      10.62      10.89
H       6.17       8.65       8.49
H       7.44       9.66       7.82
C       6.91       9.71       5.00
C       7.75       8.59       4.99
C       8.85       8.63       4.10
C       9.03       9.74       3.28
C       8.16      10.82       3.38
C       5.49       6.89       6.12
C       8.20       5.59       5.45
C       7.94       7.53       7.86
