44

Si      15.58       6.11       7.13
Si      15.02      10.21       9.19
C      16.00       4.99       9.71
C      15.17       5.00       8.59
C      14.06       4.11       8.62
C      13.87       3.29       9.73
C      14.74       3.38      10.81
C      17.44       6.14       6.91
C      14.75       5.45       5.58
C      14.97       7.86       7.53
H      13.70      10.71       6.59
H      17.23      12.26       8.53
H      17.54      13.75       6.53
H      15.97      13.55       4.62
H      12.85       9.50      10.21
H      12.64       9.85       8.49
H      12.77      11.18       9.64
H      15.61      10.26      11.61
H      15.52      11.90      10.95
H      16.95      10.90      10.65
H      16.72       8.50       8.67
H      15.45       7.82       9.66
C      14.58      11.33       6.62
C      15.42      11.33       7.73
C      16.54      12.21       7.70
C      16.72      13.04       6.59
C      15.84      12.94       5.51
C      13.15      10.18       9.41
C      15.85      10.88      10.74
C      15.63       8.46       8.79
N      15.82       4.23      10.81
N      14.76      12.10       5.51
H      16.89       5.62       9.74
H      13.36       4.06       7.78
H      13.05       2.58       9.78
H      14.62       2.77      11.70
H      17.75       6.83       6.11
H      17.95       6.47       7.83
H      17.83       5.14       6.68
H      14.99       6.07       4.71
H      15.08       4.42       5.37
H      13.65       5.42       5.66
H      13.88       7.83       7.64
H      15.15       8.51       6.65
