44

Si      19.45       7.13       2.05
Si      18.94       9.19      -2.05
H      20.75       9.74       2.54
H      17.23       7.77       4.09
H      16.90       9.78       5.58
H      18.47      11.70       5.39
H      21.63       6.11       1.35
H      21.83       7.82       1.72
H      21.69       6.66       3.04
H      18.86       4.71       2.08
H      18.94       5.36       3.73
H      17.51       5.67       2.72
H      17.77       7.65       0.32
H      19.05       6.66      -0.35
H      17.65       6.58      -2.54
H      21.16       8.56      -4.10
H      21.50       6.56      -5.58
H      19.94       4.63      -5.39
H      16.76      10.21      -1.35
H      16.56       8.50      -1.72
H      16.70       9.66      -3.04
H      19.53      11.62      -2.08
H      19.46      10.96      -3.73
H      20.88      10.66      -2.71
H      20.62       8.68      -0.31
H      19.34       9.67       0.35
C      19.87       9.71       3.17
C      19.03       8.58       3.17
C      17.92       8.61       4.05
N      19.68      10.81       3.94
C      18.60      10.81       4.78
C      21.32       6.91       2.04
C      18.61       5.58       2.70
C      18.86       7.53       0.30
C      17.73       9.73       4.87
N      18.73       5.51      -3.93
C      18.54       6.62      -3.17
C      19.36       7.74      -3.16
C      20.48       7.72      -4.05
C      20.67       6.61      -4.87
C      19.80       5.52      -4.78
C      17.08       9.42      -2.04
C      19.78      10.75      -2.70
C      19.53       8.80      -0.29
