45

N       5.55       9.84      17.98
N       5.26       9.97      19.31
N       4.41       9.01      19.62
N       1.55       5.51      22.09
N       0.89       4.89      23.03
N       0.16       3.91      22.42
N       0.13       4.55      14.14
N       0.92       5.56      13.70
N       1.55       6.05      14.74
H       7.51      10.15      17.33
H       6.70      11.54      18.06
H       4.99       8.48      16.41
H       3.14       6.86      20.62
H      -0.11       3.21      20.42
H       0.54       4.31      18.33
H       2.94       7.24      16.33
H      -0.31       3.64      16.03
H      -1.60       3.50      13.66
H      -0.80       4.34      12.31
O       7.12      11.86      15.39
O       5.07      10.98      15.46
O       1.39       2.47      12.83
O      -0.55       1.41      12.56
H      -1.08       3.55      24.06
H      -1.42       2.55      22.64
O       1.49       1.85      23.56
O      -0.28       0.98      24.58
C       6.21      11.21      16.01
C       6.55      10.70      17.38
C       4.14       8.27      18.50
C       4.88       8.78      17.45
C       3.18       7.16      18.48
C       2.76       6.54      19.66
C       1.80       5.50      19.61
C       1.27       4.95      20.86
C       0.38       3.90      21.08
C       1.30       5.08      18.37
C       1.72       5.71      17.19
C       2.65       6.75      17.25
C       1.17       5.35      15.88
C       0.26       4.38      15.49
C       0.12       2.47      12.85
C      -0.63       3.74      13.22
C       0.26       1.88      23.81
C      -0.61       2.99      23.23
