13

C       6.45       7.98       1.13
C       7.22       8.95       0.26
C       8.34       9.60       0.78
C       8.94      10.63       0.07
O       7.09       7.40       2.04
C       6.80       9.35      -1.01
O       5.22       7.80       0.80
C       7.48      10.38      -1.68
N       8.54      11.04      -1.15
H       8.71       9.30       1.77
H       9.81      11.17       0.47
H       7.17      10.70      -2.68
H       5.93       8.87      -1.46
