13

C      11.08      11.89      21.98
C      11.02      10.87      20.83
C      10.41       9.62      20.96
C      10.38       8.72      19.89
H       9.95       9.36      21.91
C      11.58      11.17      19.58
C      11.51      10.24      18.53
H      12.06      12.13      19.43
H       9.92       7.72      19.97
H      11.92      10.47      17.53
O      11.83      12.88      21.80
O      10.35      11.62      22.99
N      10.92       9.03      18.68
