13

O       5.15       3.75       1.63
O       7.16       4.40       2.45
H      10.13       1.15       0.28
H       9.06       2.97       1.68
H       5.28       1.85      -0.00
N       8.36       0.52      -0.59
H       6.47       0.06      -1.32
C       9.05       1.32       0.25
C       8.47       2.32       1.02
C       7.09       2.55       0.94
C       6.36       1.71       0.09
C       7.02       0.72      -0.64
C       6.42       3.66       1.73
