13

N       2.97       4.21      14.48
C       5.04       1.12      12.22
C       4.29       2.13      13.08
C       3.16       2.77      12.57
O       4.41       0.59      11.29
C       2.56       3.82      13.25
C       4.69       2.53      14.35
O       6.26       0.92      12.55
C       4.04       3.57      15.02
H       2.80       2.48      11.59
H       1.68       4.36      12.86
H       4.32       3.90      16.03
H       5.56       2.07      14.81
