13

H       8.54       4.39      15.07
H       7.45       2.50      13.78
H      10.09       2.98      10.63
H      11.33       4.82      11.85
O      10.15       6.31      15.34
O      12.02       5.90      14.12
N       8.72       2.65      12.15
C      10.79       5.74      14.43
C      10.03       4.73      13.57
C       8.91       4.08      14.09
C       8.31       3.05      13.37
C       9.78       3.31      11.63
C      10.46       4.33      12.30
