12

H       6.21      14.92       1.42
C       3.38      15.55      -0.01
C       3.30      14.18       0.27
C       5.22      14.90       0.98
C       2.48      16.48      -0.71
C       2.27      13.17      -0.05
O       3.02      17.52      -1.23
O       1.23      16.31      -0.82
O       1.15      13.49      -0.55
O       2.60      11.96       0.20
N       4.62      15.99       0.45
N       4.47      13.78       0.88
