13

C       6.77      11.88       3.65
C       6.86      11.47       4.99
C       4.87      10.97       4.21
C       7.71      12.42       2.70
C       7.91      11.56       6.04
N       5.51      11.55       3.18
H       3.85      10.62       4.20
N       5.65      10.90       5.31
H       9.54      12.81       2.31
O       7.35      12.56       1.50
O       8.92      12.74       3.12
O       8.98      12.15       5.87
O       7.55      10.94       7.16
