13

C      11.69      11.58       4.20
C      14.53      10.10       2.70
C      14.73      11.00       6.04
H      10.67      11.94       4.18
O      14.17       9.93       1.51
O      15.74       9.81       3.13
H      16.36       9.74       2.31
O      15.80      10.41       5.87
O      14.37      11.62       7.15
N      12.33      11.00       3.17
N      12.47      11.66       5.30
C      13.59      10.66       3.65
C      13.68      11.08       4.98
