22

H      12.06       3.48       1.38
H      11.80       3.61      -0.99
H      15.47       6.47      -2.48
H      14.95       7.27       2.36
H      16.80       8.17      -1.36
H      16.55       8.54       1.07
C      14.09       4.52       2.79
C      13.10       5.12      -2.74
C      13.45       4.99      -1.33
C      13.62       4.98       1.47
C      14.38       5.85      -0.70
C      14.35       5.95       0.72
C      12.68       4.18       0.82
C      12.58       4.21      -0.55
C      15.32       6.61      -1.43
C      15.08       7.00       1.32
C      16.10       7.57      -0.79
C      15.96       7.78       0.58
O      13.75       3.34       3.22
O      12.36       4.20      -3.22
O      15.02       5.21       3.31
O      13.27       6.28      -3.31
