22

H       7.80       7.01       1.40
H       8.09       7.24      -0.96
H       8.53       2.66      -2.58
H       9.40       2.48       2.27
H       9.22       0.59      -1.52
H       9.60       0.50       0.91
C       7.60       4.72       2.78
C       8.71       5.37      -2.75
C       8.38       5.11      -1.35
C       8.22       4.89       1.45
C       8.57       3.85      -0.75
C       8.64       3.77       0.66
C       8.06       6.13       0.83
C       8.16       6.24      -0.54
C       8.71       2.67      -1.52
C       9.11       2.56       1.23
C       9.08       1.47      -0.92
C       9.30       1.42       0.45
O       6.78       5.64       3.22
O       8.32       6.50      -3.22
O       7.72       3.55       3.31
O       9.62       4.63      -3.31
