17

C       4.27      14.01       4.80
C       4.18      12.51       6.83
S       4.48      15.57       2.54
H       4.85      13.26       4.26
H       2.72      14.52       7.78
H       2.12      16.68       6.66
H       2.95      17.14       4.35
O       3.27      16.11       1.86
O       5.49      16.66       2.72
C       3.94      15.22       4.19
O       5.03      14.36       1.92
O       4.68      11.54       6.17
O       3.93      12.46       8.08
C       3.06      14.74       6.77
C       2.73      15.94       6.14
C       3.18      16.20       4.85
C       3.83      13.78       6.11
