16

O       3.28      15.27      19.62
O      -0.29      18.62      21.72
V       2.47      16.79      20.70
O       3.30      15.95      22.30
O       2.04      18.47      21.76
O       5.61      15.43      19.58
O       4.41      17.77      20.49
O       0.85      16.12      20.85
C       4.47      14.86      19.28
C       0.90      19.03      22.06
C       4.50      15.75      22.82
C       0.94      18.14      18.52
V       6.03      17.10      20.64
O       6.87      17.94      19.04
O       5.65      16.11      22.28
O       2.09      17.78      19.06
