21

C       7.29      -1.19       9.72
C       8.85       7.26       8.84
C      11.03       3.46       7.57
C       3.10       0.13       8.44
C       6.76       6.96       5.54
C       2.95       2.24      11.75
Cd       9.85       5.64       6.36
Cd       4.91      -0.51      10.92
Cd       4.20       5.12       8.64
N       6.88       5.50       7.09
N       5.69       6.03       7.10
N       7.59       6.07       6.10
N       5.58       6.96       6.14
N       4.41       2.43      10.19
N       3.63       3.48      10.18
N       4.00       1.61      11.18
N       2.70       3.39      11.14
O       9.87       7.06       8.13
O       6.74      -0.07       9.60
O       3.52      -0.82       9.15
O       9.81       3.75       7.69
