21

C      -1.22      -0.08       5.99
C       2.59       4.65      -0.22
C      -1.74       8.07       1.81
C      -3.30      -0.38       2.68
C      -5.49       3.42       3.96
C       2.44       6.75       3.08
Cd      -4.31       1.25       5.16
Cd       0.64       7.39       0.60
Cd       1.34       1.76       2.88
N      -1.34       1.39       4.43
N      -0.14       0.85       4.42
N      -2.05       0.81       5.42
N      -0.04      -0.08       5.38
N       1.13       4.45       1.33
N       1.91       3.40       1.34
N       1.54       5.27       0.34
N       2.84       3.49       0.38
O      -4.33      -0.17       3.39
O      -1.20       6.95       1.93
O       2.02       7.71       2.37
O      -4.27       3.13       3.83
