342

C       0.37      13.67       9.50
C       0.67      15.91       8.77
C       0.50      15.44      11.12
C       0.40       7.98      45.56
C       0.75       5.74      46.28
C       0.54       6.22      43.94
C       0.51       3.15      36.87
C       0.68       5.40      36.12
C       0.71       4.92      38.45
C       0.56      18.53      18.18
C       0.75      16.28      18.94
C       0.75      16.75      16.60
C       0.33       0.32       3.08
C       0.58      20.19       5.13
C       0.27       0.29      51.98
C       0.63       1.46      49.91
C       0.13      12.05      32.44
C       0.33      10.86      30.38
C       0.55       9.67      32.44
C       0.26      10.83      24.68
C       0.58      12.00      22.60
C       0.38      10.17       8.20
C       0.19       9.43       9.41
C       0.28      12.26       9.37
C       0.58       9.53       6.88
C       1.67      10.06       5.93
C       1.90       8.75       6.69
C       0.36      11.47      46.88
C       0.15      12.21      45.68
C       0.28       9.38      45.70
C       0.57      12.11      48.20
C       1.68      11.59      49.14
C       1.88      12.90      48.38
C       0.38      20.72      35.56
C       0.19      19.98      36.76
C       0.40       1.75      36.74
C       0.53      20.09      34.23
C       1.59      20.61      33.24
C       1.83      19.29      33.98
C       0.38       0.95      19.52
C       0.17       1.69      18.31
C       0.43      19.92      18.32
C       0.52       1.58      20.85
C       1.59       1.07      21.84
C       1.80       2.39      21.10
C       0.15       3.94       5.59
C       1.26      19.19       7.32
C       0.81      19.07       5.97
C       0.78      16.90       7.78
C       1.94      20.38       7.90
C       1.33       2.44      47.73
C       0.89       2.58      49.08
C       0.88       4.75      47.27
C       1.97       1.24      47.14
C       0.23      14.49      32.90
C       0.12       7.20      22.17
C       1.22       8.68      34.63
C       0.76       8.55      33.29
C       0.73       6.38      35.11
C       1.92       9.86      35.20
C       1.27      12.98      20.41
C       0.82      13.12      21.76
C       0.82      15.28      19.94
C       1.92      11.78      19.82
C       0.65       6.57      13.53
C       1.68       7.60      13.24
C       0.62      15.03      41.55
C       1.60      13.96      41.83
C       1.25      16.88      12.97
C       1.30       4.80      42.07
C       0.83       1.34      54.17
C       0.82      11.88      26.87
C       0.52      17.74       5.56
C       0.62       3.91      49.49
C       0.45       7.22      32.89
C       0.55      14.45      22.16
C       0.48      15.79      12.50
C       0.72      16.39      15.24
C       0.51       5.86      42.56
C       0.71       5.29      39.81
C       0.22       0.29      53.42
C       0.30       0.32       1.66
C       0.22      10.83      26.12
C       0.30      10.86      28.96
C       0.10       8.01       9.56
C       9.80       5.75       8.81
C       9.83       6.22      11.15
C       0.05      13.63      45.53
C       9.75      15.89      46.27
C       9.81      15.41      43.93
C       0.04      18.57      36.90
C       9.81      16.31      36.13
C       9.64      16.77      38.46
C       9.91       3.10      18.18
C       9.74       5.36      18.95
C       9.59       4.89      16.62
C       0.10       1.50       5.14
C       0.04      20.18      49.90
C       0.05       9.65      22.60
C       0.06      10.23      10.58
C       0.00      11.41      44.51
C       0.14      20.77      37.94
C       0.13       0.90      17.13
C       9.29       2.47       7.32
C       9.77       2.61       5.99
C       9.74       4.77       7.81
C       8.60       1.27       7.88
C       7.14       1.50       8.30
C       7.45       0.58       7.12
C       9.24      19.20      47.72
C       9.70      19.06      49.07
C       0.05      17.73      49.48
C       9.68      16.89      47.26
C       8.58      20.40      47.15
C       7.12      20.19      46.72
C       7.44       0.05      47.90
C       3.40      20.14       8.36
C       3.12       0.01       7.18
C       3.43       1.44      46.67
C       3.13       0.52      47.85
C       9.33      13.03      34.62
C       9.82      13.17      33.29
C       9.80      15.32      35.12
C       8.62      11.84      35.17
C       7.15      12.10      35.59
C       7.46      11.18      34.41
C       9.25       8.66      20.43
C       9.73       8.52      21.77
C       9.71       6.35      19.95
C       8.56       9.85      19.87
C       7.09       9.61      19.46
C       7.41      10.53      20.63
C       3.38       9.59      35.65
C       3.11      10.52      34.47
C       3.38      11.99      19.35
C       3.09      11.08      20.54
C       9.82       5.87      12.53
C       9.02       4.80      13.00
C       9.58       5.27      15.27
C       3.09       7.36      13.81
C       2.85       7.26      12.31
C       9.82      15.77      42.55
C       9.07      16.87      42.08
C       9.62      16.39      39.81
C       3.02      14.14      41.26
C       2.79      14.23      42.77
C       9.68      15.06      13.50
C       8.69      14.00      13.22
C       7.28      14.16      13.81
C       7.49      14.32      12.30
C       9.66       6.57      41.58
C       8.64       7.60      41.89
C       7.22       7.39      41.33
C       7.47       7.22      42.83
C       9.50      20.34      54.21
C       8.66      19.25      53.67
C       7.26      19.01      54.27
C       7.40      19.64      52.88
C       9.51       9.82      26.91
C       8.70       8.71      26.37
C       7.30       8.45      26.97
C       7.43       9.08      25.58
H       1.84       7.85       6.08
H       2.64       8.81       7.49
H       2.28      10.90       6.27
H       1.47       9.95       4.86
H       1.82      13.80      48.99
H       2.62      12.85      47.57
H       2.29      10.76      48.79
H       1.49      11.70      50.21
H       1.74      18.39      33.37
H       2.60      19.34      34.75
H       2.22       0.38      33.56
H       1.35      20.50      32.18
H       1.70       3.29      21.71
H       2.58       2.37      20.33
H       2.24       0.26      21.51
H       1.35       1.17      22.90
H       0.48       4.14       4.64
H       0.36      17.53      50.43
H       1.40      20.97       8.64
H       1.41       0.66      46.40
H       0.56      14.69      31.96
H       0.45       7.00      23.12
H       1.40      10.47      35.94
H       1.36      11.19      19.10
H       1.38       8.65      13.27
H       1.25      12.92      41.78
H       1.79      17.47      12.32
H       1.87       4.23      42.70
H       1.30       2.11      53.70
H       1.27      12.67      26.39
H       0.20      17.55       4.60
H       0.31       4.10      50.45
H       0.24      14.65      23.12
H       9.81       9.84      11.51
H       9.63       9.06       6.40
H       9.73      11.80      43.59
H       9.63      12.57      48.69
H       0.02      20.38      38.87
H       9.56      19.63      33.77
H       9.91       1.29      16.20
H       9.54       2.01      21.30
H       9.13       0.68       8.62
H       7.34      20.57       7.31
H       7.19       0.98       6.14
H       6.65       2.44       8.01
H       6.79       0.98       9.20
H       9.13      20.98      46.41
H       7.34       1.12      47.70
H       7.16      20.72      48.88
H       6.61      19.26      47.01
H       6.79      20.71      45.82
H       3.23       1.08       7.38
H       3.39      20.68       6.20
H       3.88      19.20       8.07
H       3.72      20.65       9.26
H       3.22      20.51      47.64
H       3.43       0.90      48.83
H       3.94       2.36      46.94
H       3.73       0.92      45.75
H       9.13      11.24      35.92
H       7.32      10.11      34.59
H       7.21      11.58      33.42
H       6.68      13.04      35.30
H       6.80      11.58      36.48
H       9.08      10.44      19.13
H       7.29      11.60      20.44
H       7.15      10.13      21.62
H       6.61       8.67      19.75
H       6.74      10.13      18.56
H       0.14       7.03      31.94
H       3.24      11.59      34.66
H       3.37      10.11      33.49
H       3.84       8.65      35.38
H       3.71      10.11      36.56
H       3.19      10.01      20.34
H       3.39      11.47      21.51
H       3.88      12.92      19.62
H       3.68      11.47      18.44
H       8.48       4.23      12.35
H       3.25       8.09      11.71
H       2.89       6.25      11.90
H       3.29       6.40      14.30
H       3.65       8.24      14.13
H       8.55      17.47      42.73
H       3.14      13.37      43.35
H       2.87      15.23      43.19
H       3.27      15.09      40.79
H       3.54      13.23      40.94
H       9.04      12.96      13.17
H       7.12      13.50      11.69
H       7.40      15.35      11.94
H       7.04      15.08      14.34
H       6.76      13.24      14.10
H       8.95       8.65      41.93
H       7.09       8.03      43.46
H       7.43       6.19      43.19
H       7.01       6.46      40.80
H       6.67       8.29      41.06
H       9.17      18.35      53.30
H       7.13      18.99      52.04
H       7.14      20.70      52.83
H       6.92      19.69       0.44
H       6.91      17.98      54.27
H       9.21       7.82      26.00
H       7.17       8.42      24.75
H       7.15      10.14      25.53
H       6.94       9.13      27.74
H       6.96       7.41      26.97
N       0.50      14.58       8.50
N       0.68      16.30      10.08
N       0.36      14.14      10.78
N       0.56       7.07      46.57
N       0.75       5.35      44.97
N       0.38       7.51      44.29
N       0.55       4.06      35.86
N       0.74       5.80      37.42
N       0.60       3.62      38.15
N       0.62      17.61      19.20
N       0.80      15.87      17.63
N       0.63      18.06      16.91
N       0.16       1.49       3.78
N       0.50      20.21       3.77
N       0.34       0.31       5.75
N       0.53       1.44      51.27
N       0.35       0.29      49.29
N       0.19      12.03      31.08
N       0.48       9.69      31.08
N       0.34      10.86      33.05
N       0.50      11.98      23.96
N       0.33      10.82      21.99
N       0.40      11.54       8.23
N       0.41      10.10      46.85
N       0.46       1.03      35.59
N       0.48      20.64      19.48
N       0.15       4.96       6.50
N       1.19      18.13       8.15
N       1.27       3.51      46.89
N       0.22      15.52      33.81
N       0.12       6.17      21.27
N       1.15       7.62      35.47
N       1.21      14.04      19.57
N       0.48       6.26      14.84
N       0.48      15.36      40.24
N       1.34      17.15      14.30
N       1.37       4.54      40.74
N       0.85       1.33       0.93
N       0.83      11.88      28.23
N       0.25       1.05      37.89
N       0.26      20.62      17.18
N       0.49      16.71       6.46
N       0.60       4.93      48.59
N       0.43       6.20      33.79
N       0.53      15.47      21.26
N       0.05       7.09       8.55
N       9.73       5.35      10.12
N       0.04       7.52      10.82
N       9.91      14.56      46.53
N       9.70      16.29      44.96
N       0.01      14.12      44.27
N       0.06      17.64      35.89
N       9.67      15.90      37.42
N       9.79      18.07      38.16
N       9.91       4.03      19.19
N       9.60       5.77      17.65
N       9.74       3.59      16.92
N       0.06      20.20      51.26
N       0.08       9.68      23.96
N       0.11      11.57      10.52
N       0.08      10.08      44.56
N       9.34       3.53       8.17
N       0.06      16.70      48.58
N       9.29      18.13      46.89
N       9.38      14.08      35.46
N       9.30       7.59      19.60
N       8.94       4.52      14.33
N       9.01      17.16      40.75
N       9.85      15.38      14.81
N       9.81       6.27      40.26
N       9.59      20.39       0.98
N       9.60       9.86      28.28
