18

O       3.97       8.30      10.53
O       5.72       6.86      10.18
O       4.74      11.60      14.52
C       5.17       7.89      10.69
H       7.79       7.49      11.33
C       6.03       8.71      11.60
C       7.37       8.35      11.85
H       9.17       8.81      12.93
H       4.46      10.11      12.06
C       8.14       9.10      12.72
C       7.62      10.26      13.33
C       8.48      11.07      14.26
C       6.29      10.63      13.07
C       5.64      11.84      13.67
C       5.50       9.84      12.23
O       6.00      12.99      13.24
O       7.97      11.67      15.24
O       9.74      11.08      13.99
