11

Cd       6.01       2.52      16.12
O       4.37       2.28      17.71
C       7.53       3.38      18.91
N       7.69       3.30      17.57
C       8.95       3.30      17.08
C       7.70       0.42      15.69
N       6.60       4.34      14.80
C       3.56       3.13      17.20
O       6.66       0.34      16.43
C       7.28       4.32      13.64
C       6.41       5.53      15.41
