12

Cd       4.81      11.26      17.72
N       3.16      12.61      16.81
N       4.39       9.68      16.02
C       3.19      10.72      19.87
C       7.26      12.24      16.64
C       1.89      12.15      16.91
C       3.36      13.84      16.30
C       3.94       8.43      16.28
O       4.12      11.58      20.01
O       3.08       9.96      18.85
C       4.57      10.05      14.74
O       6.94      11.84      17.83
