20

H      -3.73       7.45       3.08
H      -6.26       4.85      -0.30
C      -4.64       7.49       1.12
C      -5.34       6.73       0.15
C      -4.46       8.96       0.91
C      -5.79       7.25      -1.17
C      -4.66       5.56       2.62
C      -5.36       4.81       1.65
C      -4.47       4.99       3.99
C      -5.85       3.41       1.82
C      -4.29       6.89       2.34
C      -5.68       5.41       0.42
O      -3.52       9.55       1.60
O      -5.24       9.52       0.12
O      -7.07       7.40      -1.31
O      -5.03       7.36      -2.16
O      -3.53       5.52       4.71
O      -5.25       4.08       4.35
O      -7.14       3.27       1.90
O      -5.11       2.41       1.72
