14

C       8.20       0.85      16.70
C       8.19       1.35      12.45
C       8.41       1.41      15.38
C       9.34       0.89      14.55
C       9.34       1.20      13.11
O       6.93       2.37      10.80
O       9.14       2.57      10.64
H      10.10       0.21      14.93
H      10.29       1.36      12.62
H       7.67       2.12      15.01
F       7.01       1.01      13.05
O       9.20       0.41      17.34
O       7.01       0.62      17.06
C       8.10       2.08      11.19
