30

H      -1.08       7.97      15.06
H      -1.94       6.55      15.69
H       1.22       7.94      14.40
H       1.16       4.25      15.00
H      -1.34       3.86      13.50
H       2.25       6.49      14.51
H       1.66       5.73      12.49
C      -0.88       5.50      11.34
C      -1.18       6.86      14.95
C      -1.63       6.54      13.51
C       1.22       6.84      14.26
C       0.12       4.64      14.93
C       0.18       6.18      15.22
C      -0.51       5.75      12.74
C       0.89       6.47      12.81
C      -0.36       4.39      13.49
C       0.65       6.41      16.59
N       1.01       7.63      11.92
N      -0.70       3.93      15.91
O      -1.31       6.55      10.69
O      -0.05       4.73      10.74
O       0.54       7.57      17.08
O       1.45       5.55      17.04
O       0.19       8.64      12.01
O       1.93       7.65      11.00
O      -0.15       3.04      16.69
O      -1.97       4.19      16.06
F       0.55       3.55      12.87
F      -2.76       5.75      13.55
F      -1.99       7.72      12.88
