50

Ho      11.51       3.74       8.65
Ho       3.95       7.97       2.14
H       9.85       8.02       1.63
H       8.00       3.08       8.82
H       7.26       5.65       7.83
H      10.09       5.66       4.59
H       7.42       9.75       5.69
H       6.37       3.26       6.45
H       5.62       3.69       9.17
H       7.46       8.63       1.98
H       8.21       6.06       2.96
H       5.38       6.05       6.21
H       8.05       1.97       5.11
H       9.10       8.45       4.35
C      12.12      11.36      10.59
C       9.33       8.66       0.91
C       7.47       2.70       9.68
C      13.57      11.05      10.39
C       8.77       5.62       6.30
C       7.45       5.74       6.76
C       9.06       5.74       4.93
C       4.80       1.83       6.14
C       8.43      10.11       5.55
C       6.11       2.32       5.98
C       3.82       2.59       6.95
C       9.86       5.28       7.25
C       3.35       0.35       0.21
C       6.14       3.05       9.89
C       8.00       9.01       1.12
C       1.90       0.67       0.40
C       6.70       6.09       4.49
C       8.02       5.97       4.03
C       6.41       5.97       5.87
C      10.67       9.88       4.66
C       7.04       1.60       5.24
C       9.36       9.39       4.81
C      11.65       9.12       3.85
C       5.60       6.43       3.54
O      10.21       2.16       9.48
O      12.04       7.97       0.36
O      11.07       5.17       6.85
O       4.15       3.71       7.49
O       2.64       2.11       7.14
O       9.58       4.99       8.48
O       5.26       9.55       1.32
O       3.42       3.74      10.44
O       4.40       6.54       3.95
O      11.32       8.00       3.30
O      12.83       9.60       3.65
O       5.89       6.72       2.31
