26

Mn       8.08      10.64       0.19
Mn       8.11       7.51      -0.23
Mn       9.24      13.61      -0.19
Mn       9.21      16.75       0.23
C      10.08      11.11      -1.95
C       6.63       8.91       2.02
C      10.11       7.18       1.97
C       6.52       9.23      -2.00
C       7.24      13.13       1.94
C      10.69      15.35      -2.03
C       7.42       4.95      -1.97
C      10.80      15.03       2.01
O       7.08       7.81       1.58
O       6.72      10.06       1.43
O       9.39      11.70      -0.91
O       6.91      10.36      -1.55
O       6.66       8.08      -1.41
O       9.50       6.54       0.89
O      10.24      16.45      -1.59
O      10.59      14.19      -1.45
O       7.94      12.55       0.90
O      10.42      13.91       1.56
O      10.65      16.18       1.41
O       8.03       5.59      -0.89
O       8.89       9.10      -0.13
O       8.43      15.16       0.13
