31

N      11.36       2.16       4.67
C      12.50       5.16       0.84
H      11.94      -0.24       9.06
H      11.03       0.88       6.99
O      15.52       0.44      10.57
O      13.92      -1.11      10.50
H      15.76       1.63       8.40
H      14.87       2.71       6.32
H      12.59       4.30       3.36
H      10.62       3.59      -0.37
O       9.25       1.63      -0.89
O       8.11       0.88       0.89
H       9.57       1.20       3.05
O      13.29       5.77       1.63
O      12.35       5.40      -0.40
C      14.47      -0.06      10.03
C      13.90       0.62       8.83
C      12.56       0.42       8.45
C      12.06       1.04       7.31
C      12.90       1.86       6.53
C      14.23       2.08       6.93
C      14.73       1.47       8.08
C      12.49       2.43       5.25
C       9.05       1.57       0.37
C       9.99       2.32       1.25
C      10.76       3.34       0.67
H      13.27       3.04       4.77
C      11.87       3.72       2.79
C      11.14       2.65       3.37
C      10.16       1.99       2.60
C      11.68       4.05       1.45
