28

K       4.93      10.44       2.09
K       0.61      10.42      -2.11
S       6.67      13.85       3.77
Sm       7.55      13.64       0.40
S       8.14      10.21       1.56
Sm       3.23      13.64      -0.42
S       2.35      13.84      -3.78
S       3.83      10.21      -1.57
O       3.32      15.44       1.29
O       5.34      14.62       0.93
O       7.70      14.07       2.66
O       1.23      12.80       0.94
O       3.27      12.41       1.70
O       7.30      11.39       1.14
O       7.26       9.10       1.98
O       9.17       9.87       0.58
O       7.60      15.45      -1.31
O       1.03      14.63      -0.94
O       3.39      14.06      -2.69
C       4.53      15.30       1.66
O       5.51      12.80      -0.95
O       7.55      12.42      -1.71
O       2.97      11.39      -1.16
O       2.97       9.10      -1.98
O       4.87       9.91      -0.58
C       2.00      12.29       1.83
C       0.22      15.31      -1.67
C       6.29      12.30      -1.84
