22

Cr       2.05       4.61       2.20
Cr       5.64       4.75       2.24
Cr       3.80       4.68       5.30
C       3.92       6.62       0.58
C       6.12       2.82       4.72
O       1.10       3.05       3.29
O       2.91       3.23       1.05
C       1.53       2.61       4.43
O       3.83       4.68       3.25
O       5.14       6.25       0.84
C       4.04       2.73       0.62
O       6.19       6.19       3.52
O       5.21       6.26       5.61
O       2.35       6.03       5.17
O       1.02       6.09       3.28
O       2.83       6.05       1.04
O       5.22       3.21       0.85
C       6.01       6.71       4.70
O       6.27       3.37       3.53
O       5.29       3.22       5.62
O       2.43       3.22       5.18
C       1.37       6.51       4.46
