22

Cr       7.78      14.04       7.62
Cr      11.37      13.90       7.57
Cr       9.53      13.97       4.51
C       9.64      12.01       9.20
C      11.81      15.86       5.13
O       6.83      15.60       6.53
O       8.64      15.42       8.77
C       7.28      16.05       5.39
O       9.56      13.97       6.57
C       9.78      15.93       9.19
O      11.91      12.46       6.30
O      10.93      12.39       4.21
O      10.87      12.40       8.98
O       8.08      12.62       4.65
O       6.74      12.56       6.54
O       8.56      12.60       8.78
O      10.96      15.44       8.97
O      12.00      15.28       6.29
O      11.03      15.43       4.20
C      11.71      11.92       5.13
O       8.17      15.43       4.64
C       7.13      12.11       5.39
