22

Cr       5.66      13.85      17.39
Cr       3.83      13.92      14.33
Cr       2.08      13.99      17.44
C       3.94      11.95      19.01
C       6.13      15.79      14.94
O       5.16      12.34      18.80
C       6.00      11.87      14.95
O       2.94      15.37      18.58
C       1.57      15.99      15.21
O       3.86      13.92      16.39
C       4.08      15.86      19.02
O       6.21      12.41      16.12
O       5.23      12.34      14.02
O       2.37      12.56      14.47
O       1.04      12.51      16.36
O       2.85      12.55      18.59
O       5.26      15.38      18.78
O       6.30      15.23      16.11
O       5.32      15.38      14.01
O       2.46      15.38      14.46
O       1.13      15.55      16.35
C       1.43      12.06      15.20
