22

Cr       7.76       4.55      12.01
Cr      11.34       4.70      12.06
Cr       9.51       4.63      15.12
C       9.63       6.57      10.40
O       6.80       3.00      13.11
C      11.81       2.75      14.52
O       8.61       3.18      10.87
C       7.25       2.55      14.24
O       9.54       4.63      13.07
C       9.75       2.69      10.42
O      11.90       6.13      13.34
O      10.92       6.21      15.43
O       8.06       5.98      14.99
O       6.72       6.04      13.10
O      10.85       6.20      10.66
O       8.54       6.00      10.86
O      10.93       3.16      10.67
O      11.97       3.31      13.35
O      11.00       3.17      15.44
O       8.14       3.16      15.00
C      11.72       6.66      14.51
C       7.08       6.45      14.28
