66

C      12.88      13.72      13.60
C      13.31      14.13      12.20
C      12.03      12.29      17.56
C      15.73      20.18      14.39
C      14.92      19.18      13.81
C      13.81      19.60      13.03
C      13.30      20.91      13.22
C      13.25      18.75      11.91
F      12.11      18.11      12.34
F      14.18      17.81      11.49
F      12.93      19.54      10.83
F      12.31      10.93      17.50
H      19.79      13.51      17.04
H      16.65      19.91      14.89
F      10.77      12.47      18.09
H      18.32      15.06      12.56
F      12.92      15.43      11.95
F      12.96      12.86      18.42
H      13.08      17.25      14.47
H      15.79      13.97      14.98
H      17.34      17.84      13.93
H      11.87      11.93      12.93
H      13.07      14.72      16.86
H      12.32      21.17      12.84
C      16.46      22.57      14.08
C      21.21      12.39      15.08
C      19.45      13.83      16.06
C      13.29      22.83      14.79
C      18.64      14.72      13.54
C      19.97      13.19      14.92
C      19.53      13.62      13.64
O      22.28      13.02      15.52
C      20.03      12.98      12.36
O      21.13      11.04      15.08
C      15.37      21.54      14.28
C      14.04      21.86      13.94
O      12.67      22.38      15.85
O      13.36      24.13      14.59
C      15.17      17.73      14.12
C      14.09      16.86      14.42
C      14.32      15.49      14.63
C      15.62      15.02      14.76
C      16.71      15.86      14.56
C      16.49      17.21      14.18
O       9.42      11.87      14.18
O      10.07      10.60      16.01
F      12.75      13.32      11.23
F      16.06      23.81      14.52
C      10.32      11.54      15.09
F      16.76      22.65      12.73
F      18.95      15.47      18.25
F      17.83      16.94      16.98
F      21.15      13.67      11.92
C      18.04      15.59      17.21
F      17.60      22.20      14.77
F      20.36      11.65      12.55
C      11.63      12.21      15.05
F      14.69      14.04      12.09
C      18.07      15.29      14.68
C      18.56      14.91      15.95
F      19.07      13.03      11.37
C      12.14      12.54      13.79
F      16.85      15.00      17.59
C      12.12      12.90      16.18
C      12.78      14.13      16.00
C      13.21      14.53      14.72
