66

H      10.68       8.57       5.37
H      11.09       1.05       6.47
F      11.31       6.80       6.89
H       6.78       4.45       4.74
H       8.52       0.54       4.93
H      10.94       3.88       3.71
H      12.68      -0.94       2.23
H       5.88       1.49       2.98
H       4.72       0.05       7.58
H       7.39       6.02       2.74
F      12.14      -2.79       6.57
C       5.59       1.21       3.99
C       6.21       1.83       5.08
F       9.56       1.11       1.70
C      10.89       5.91       5.92
C       9.91       7.99       4.88
C       8.18       9.68       5.42
C       9.95       6.59       4.93
C      14.04      -1.67       4.41
C      11.42       0.60       5.54
C      12.67      -1.12       4.37
C      12.09      -0.64       5.56
C      12.17      -1.44       6.84
C       8.72       8.64       4.49
O       8.62       9.63       6.65
O       7.63      10.80       4.94
O      14.98      -0.95       3.87
O      14.26      -2.93       4.75
F       5.58       2.02       8.71
C       8.89       4.36       4.26
C       7.64       3.81       4.62
C       7.52       2.44       4.85
C       8.63       1.60       4.74
C       9.86       2.11       4.35
C       9.99       3.49       4.07
O       1.98      -0.01       5.73
O       2.92      -2.04       6.17
F       7.31       9.87       2.31
F       5.75       9.01       3.69
F      12.01       5.45       5.25
F      10.28       4.86       6.58
C       3.02      -0.82       5.70
C      11.02       1.18       4.32
F      13.35      -1.14       7.50
C      12.24      -0.57       3.14
F      11.11      -1.14       7.67
C      10.94       1.12       1.77
C      11.40       0.56       3.11
C       5.83       1.47       6.39
C       4.97       0.37       6.58
F      11.40       2.41       1.62
F       3.86      -1.98       3.35
C       4.39      -0.75       2.98
C       6.39       2.20       7.59
F       6.47       3.56       7.34
C       8.05       6.56       3.39
F      11.42       0.37       0.71
C       6.79       8.70       2.83
F       3.47      -0.08       2.20
C       4.34      -0.23       5.48
C       4.76       0.10       4.18
F       5.52      -0.99       2.21
F       7.65       1.72       7.88
C       7.87       7.96       3.59
C       9.02       5.85       4.14
F       6.29       7.95       1.78
