996

H      14.79      15.73      52.33
H      14.87      18.11      52.06
H      17.54      22.38      52.15
H      19.64      23.48      52.48
H      21.06      20.13      54.59
H      18.37      15.87      54.52
H      17.29      19.55      56.02
H      19.12      18.25      59.58
H      20.81      17.14      58.30
H      19.41      18.34      51.55
H      22.87      15.89      53.86
H      22.91      16.02      51.47
H      16.68      19.96      51.67
H      15.97      20.37      53.23
H      22.11      17.40      55.97
H      21.11      15.93      55.92
H      15.80      13.66      53.54
H      21.96      23.42      53.80
H      20.72      18.20      49.54
H      16.41      20.30      58.13
H     -11.22      23.42      52.34
H      -9.21      22.16      52.06
H      -6.84      17.71      52.15
H      -6.94      15.34      52.48
H      32.29      15.79      54.58
H      29.94      20.24      54.52
H      -9.17      19.35      56.02
H      31.63      18.41      59.58
H      29.84      17.50      58.30
H      31.57      18.11      51.55
H      27.72      16.34      53.86
H      27.81      16.24      51.47
H      -8.51      19.66      51.66
H      -7.80      20.08      53.23
H      29.40      16.25      55.97
H      28.63      17.84      55.91
H     -13.53      23.58      53.55
H      34.69      13.37      53.79
H      30.80      17.04      49.54
H      -8.08      19.73      58.13
H      29.86       5.00      52.33
H      27.76       3.88      52.06
H      22.73       4.06      52.15
H      20.72       5.33      52.48
H      22.91       8.23      54.58
H      27.95       8.04      54.52
H      25.30       5.25      56.02
H      25.52       7.49      59.58
H      25.63       9.50      58.30
H      25.29       7.69      51.55
H      25.68      11.92      53.86
H      25.55      11.88      51.47
H      25.25       4.53      51.66
H      25.25       3.70      53.23
H      24.76      10.50      55.97
H      26.53      10.38      55.91
H      31.15       6.91      53.54
H      19.62       7.37      53.80
H      24.76       8.90      49.54
H      25.10       4.12      58.13
H      14.63      26.07      22.48
H      14.55      23.69      22.20
H      11.88      19.42      22.29
H       9.78      18.32      22.62
H       8.36      21.67      24.72
H      11.05      25.93      24.66
H      12.14      22.25      26.16
H      10.30      23.55      29.72
H       8.62      24.65      28.44
H      10.02      23.46      21.69
H       6.55      25.91      24.00
H       6.52      25.78      21.61
H      12.74      21.84      21.80
H      13.46      21.43      23.37
H       7.32      24.40      26.10
H       8.31      25.87      26.05
H      13.63      28.14      23.68
H       7.47      18.38      23.93
H       8.71      23.60      19.68
H      13.01      21.50      28.27
H      -2.20      18.38      22.48
H      -4.22      19.64      22.20
H      -6.58      24.09      22.29
H      -6.48      26.46      22.61
H      -2.87      26.01      24.72
H      -0.52      21.55      24.66
H      -4.25      22.45      26.16
H      -2.21      23.39      29.72
H      -0.41      24.30      28.44
H      -2.15      23.69      21.69
H       1.71      25.46      24.00
H       1.61      25.56      21.61
H      -4.91      22.14      21.80
H      -5.63      21.72      23.37
H       0.02      25.55      26.11
H       0.80      23.96      26.05
H       0.10      18.22      23.68
H      -5.27      28.43      23.93
H      -1.37      24.75      19.68
H      -5.34      22.07      28.27
H      -0.44      36.80      22.48
H      23.09       0.81      22.20
H      28.12       0.64      22.29
H       8.70      36.47      22.61
H       6.51      33.57      24.72
H       1.47      33.76      24.66
H       4.12      36.55      26.16
H       3.91      34.31      29.71
H       3.80      32.30      28.44
H       4.13      34.11      21.69
H       3.74      29.88      24.00
H       3.87      29.92      21.60
H      25.59       0.17      21.80
H      25.59       1.00      23.37
H       4.66      31.30      26.10
H       2.90      31.42      26.05
H      -1.73      34.89      23.68
H       9.80      34.43      23.93
H       4.67      32.90      19.67
H      25.75       0.57      28.27
H      -6.55      26.33      10.84
H      -6.50      23.97      11.24
H      -3.92      19.67      11.27
H      -1.87      18.50      10.90
H      -0.50      21.67       8.51
H      -3.10      26.01       8.47
H      -4.43      22.33       7.26
H      -2.76      23.22       3.50
H      -0.90      24.25       4.57
H      -1.95      23.90      11.49
H       1.49      25.81       8.67
H       1.61      26.09      11.05
H      -4.71      22.13      11.64
H      -5.51      21.63      10.14
H       0.53      24.08       6.84
H      -0.34      25.62       6.77
H      -5.56      28.32       9.44
H       0.38      18.45       9.40
H      -0.60      26.09      13.15
H      -5.71      21.90       5.23
H       9.93      18.32      10.84
H      11.95      19.55      11.24
H      14.38      23.93      11.27
H      14.37      26.30      10.90
H      10.93      25.89       8.51
H       8.48      21.48       8.47
H      12.33      22.16       7.26
H      10.73      23.16       3.50
H       8.91      24.26       4.57
H       9.73      23.53      11.49
H       6.35      25.54       8.67
H       6.05      25.51      11.04
H      12.64      22.02      11.64
H      13.47      21.58      10.15
H       8.34      25.58       6.84
H       7.44      24.05       6.77
H       7.71      18.19       9.44
H      13.29      28.27       9.40
H       7.13      23.62      13.15
H      13.35      21.26       5.23
H       8.62      36.60      10.84
H      27.98       0.63      11.24
H      22.96       0.55      11.27
H      -0.50      36.46      10.90
H       1.56      33.68       8.51
H       6.62      33.77       8.47
H       4.10      36.76       7.26
H       4.04      34.87       3.50
H       4.00      32.75       4.57
H       4.21      33.82      11.49
H       4.16      29.89       8.67
H       4.34      29.65      11.04
H       4.06      37.10      11.64
H      25.46       0.94      10.14
H       3.13      31.60       6.84
H       4.90      31.58       6.77
H       9.85      34.75       9.44
H      -1.67      34.53       9.40
H       5.44      31.55      13.15
H      25.79       0.99       5.23
H      -6.87      15.47      40.70
H      -6.92      17.83      41.10
H      -9.50      22.13      41.13
H     -11.56      23.30      40.76
H      29.92      20.12      38.37
H      32.52      15.79      38.33
H      -8.99      19.47      37.12
H     -10.66      18.58      33.36
H      30.32      17.55      34.43
H      31.37      17.90      41.36
H      27.94      15.98      38.53
H      27.81      15.71      40.91
H      -8.72      19.67      41.51
H      -7.91      20.17      40.01
H      28.90      17.72      36.70
H      29.77      16.18      36.63
H      34.98      13.48      39.30
H      29.04      23.35      39.26
H      30.01      15.70      43.01
H      -7.71      19.90      35.10
H      19.49      23.48      40.71
H      17.48      22.25      41.10
H      15.04      17.87      41.13
H      15.06      15.50      40.76
H      18.49      15.91      38.37
H      20.95      20.33      38.33
H      17.09      19.64      37.12
H      18.70      18.64      33.36
H      20.52      17.54      34.43
H      19.69      18.27      41.36
H      23.07      16.26      38.53
H      23.37      16.29      40.91
H      16.78      19.78      41.51
H      15.95      20.22      40.01
H      21.08      16.22      36.70
H      21.98      17.75      36.63
H      21.71      23.61      39.31
H      16.14      13.53      39.26
H      22.29      18.19      43.01
H      16.07      20.54      35.10
H      20.80       5.20      40.70
H      22.87       4.07      41.10
H      27.88       4.14      41.13
H      29.92       5.34      40.76
H      27.86       8.11      38.37
H      22.80       8.03      38.33
H      25.32       5.03      37.12
H      25.39       6.93      33.36
H      25.43       9.05      34.43
H      25.21       7.97      41.35
H      25.27      11.90      38.53
H      25.09      12.15      40.91
H      25.36       4.70      41.51
H      25.39       3.75      40.01
H      26.29      10.20      36.70
H      24.52      10.22      36.63
H      19.57       7.05      39.31
H      31.09       7.26      39.26
H      23.98      10.24      43.01
H      25.06       3.71      35.09
H      16.26       9.96      54.71
H      15.69      11.22      53.60
H      16.30      11.66      55.21
H      22.51      11.18      53.20
H      22.02      12.50      52.12
H      21.98      10.82      51.54
H      25.89      25.03      54.71
H      27.26      24.89      53.60
H      27.34      24.15      55.22
H      23.82      19.01      53.21
H      25.20      18.78      52.13
H      23.77      19.64      51.55
H      34.12       9.16      54.71
H      33.32       8.04      53.60
H      32.64       8.34      55.21
H      29.94      13.96      53.20
H      29.05      12.88      52.13
H      30.51      13.69      51.54
H      13.16      31.84      24.84
H      13.73      30.58      23.73
H      13.13      30.14      25.35
H       6.92      30.62      23.35
H       7.41      29.30      22.27
H       7.44      30.97      21.68
H       3.53      16.77      24.84
H       2.17      16.91      23.73
H       2.09      17.65      25.35
H       5.60      22.79      23.35
H       4.22      23.02      22.27
H       5.65      22.16      21.69
H      -4.70      32.64      24.84
H      -3.90      33.76      23.73
H      -3.21      33.46      25.35
H      -0.52      27.84      23.34
H       0.37      28.92      22.26
H      -1.09      28.11      21.68
H      -4.98      31.97       8.25
H      -5.63      30.74       9.35
H      -4.95      30.27       7.77
H       1.16      30.69      10.09
H       0.60      29.38      11.14
H       0.56      31.05      11.72
H       4.26      16.86       8.25
H       5.65      16.92       9.35
H       5.72      17.74       7.77
H       2.30      22.82      10.09
H       3.71      22.99      11.14
H       2.28      22.12      11.72
H      12.72      32.42       8.26
H      11.98      33.59       9.35
H      11.23      33.24       7.77
H       8.54      27.74      10.09
H       7.69      28.88      11.14
H       9.16      28.08      11.72
H      34.41       9.83      38.12
H      35.05      11.06      39.21
H      34.37      11.53      37.63
H      28.26      11.11      39.95
H      28.82      12.42      41.00
H      28.86      10.75      41.58
H      25.16      24.94      38.12
H      23.78      24.88      39.21
H      23.71      24.06      37.63
H      27.12      18.98      39.95
H      25.71      18.81      41.01
H      27.14      19.68      41.58
H      16.70       9.38      38.12
H      17.44       8.21      39.21
H      18.19       8.56      37.63
H      20.88      14.06      39.94
H      21.74      12.92      41.00
H      20.27      13.72      41.58
H      18.78      18.51      45.62
H      19.65      18.60      44.10
H      20.16      19.62      45.46
H      23.87      14.96      48.08
H      23.51      13.92      46.69
H      22.44      13.89      48.10
H      32.03      18.57      45.62
H      31.67      17.77      44.10
H      32.30      16.83      45.45
H      26.41      15.94      48.08
H      25.68      16.77      46.69
H      26.20      17.71      48.11
H      25.47       7.07      45.62
H      24.95       7.78      44.09
H      23.82       7.70      45.45
H      25.99      13.25      48.08
H      27.07      13.47      46.69
H      27.62      12.55      48.10
H      10.64      23.29      15.76
H       9.77      23.19      14.23
H       9.27      22.18      15.59
H       5.56      26.84      18.21
H       5.92      27.89      16.83
H       6.98      27.91      18.24
H      -2.60      23.22      15.76
H      -2.24      24.02      14.23
H      -2.87      24.97      15.59
H       3.01      25.86      18.22
H       3.74      25.04      16.83
H       3.23      24.10      18.24
H       3.96      34.73      15.76
H       4.48      34.02      14.23
H       5.61      34.10      15.59
H       3.44      28.55      18.21
H       2.36      28.34      16.83
H       1.80      29.25      18.24
H      16.31      23.33       0.06
H      17.64      22.15       0.08
H      17.32      23.15       1.51
H      13.14      18.94       4.07
H      13.24      17.95       2.61
H      12.05      19.26       2.70
H      -5.41      18.30       0.06
H      -7.08      17.74       0.08
H      -6.07      17.52       1.50
H      -7.62      23.24       4.07
H      -8.53      23.65       2.61
H      -6.80      24.02       2.70
H      22.52       2.52       0.06
H      22.87       4.25       0.08
H      22.17       3.49       1.51
H      27.90       1.97       4.07
H      28.71       2.55       2.61
H      28.17       0.87       2.70
H      13.11      18.47      29.92
H      11.79      19.65      29.94
H      12.10      18.65      31.37
H      16.28      22.86      33.94
H      16.18      23.85      32.48
H      17.37      22.54      32.56
H      -8.01      23.49      29.92
H      -6.34      24.06      29.94
H      -7.35      24.28      31.37
H      -5.80      18.56      33.94
H      -4.89      18.15      32.48
H      -6.62      17.78      32.57
H      28.32       2.17      29.92
H      27.97       0.44      29.94
H      28.67       1.21      31.37
H      22.94       2.73      33.93
H      22.13       2.15      32.48
H      22.67       3.83      32.56
C      20.10      17.77      53.46
C      21.12      17.06      54.14
C      20.07      17.69      56.39
C      19.03      18.40      55.73
C      18.03      19.04      56.51
C      18.02      19.01      57.93
C      19.07      18.30      58.56
C      20.07      17.65      57.80
C      22.13      16.41      53.39
C      22.15      16.48      51.98
C      21.15      17.20      51.28
C      20.14      17.82      52.04
C      17.73      17.74      53.80
C      16.71      18.41      53.08
C      18.06      20.57      53.12
C      19.09      19.92      53.84
C      18.27      21.90      52.69
C      19.50      22.55      52.88
C      20.55      21.90      53.56
C      20.30      20.62      54.09
C      17.62      16.35      54.02
C      16.59      15.57      53.45
C      15.56      16.25      52.76
C      15.61      17.65      52.60
C      18.99      18.46      54.22
C      16.80      19.86      52.75
C      21.15      16.99      55.63
C      21.83      22.45      53.61
C      21.15      17.38      49.89
C      16.64      14.18      53.49
C      17.02      19.70      58.64
C      30.73      17.79      53.46
C      29.60      17.27      54.14
C      30.68      17.87      56.39
C      31.81      18.41      55.73
C      -9.98      18.95      56.51
C     -10.00      18.98      57.93
C      31.70      18.43      58.56
C      30.64      17.89      57.80
C      28.54      16.72      53.39
C      28.59      16.67      51.98
C      29.71      17.17      51.28
C      30.75      17.73      52.04
C     -10.95      19.86      53.80
C      -9.87      20.41      53.07
C      -8.67      18.16      53.12
C      -9.75      17.60      53.84
C      -7.62      17.32      52.69
C      -7.68      15.93      52.88
C      -8.76      15.34      53.56
C      33.09      16.20      54.09
C      30.73      20.66      54.02
C     -12.26      21.94      53.45
C     -11.16      22.49      52.77
C      -9.97      21.74      52.60
C      31.88      18.41      54.22
C      -8.66      19.61      52.75
C      29.53      17.28      55.63
C      33.91      13.96      53.61
C      29.86      17.08      49.89
C      29.35      22.59      53.50
C      -8.91      19.50      58.64
C      25.44       8.58      53.46
C      25.55       9.82      54.14
C      25.52       8.59      56.39
C      25.43       7.34      55.73
C      25.37       6.15      56.51
C      25.40       6.16      57.93
C      25.50       7.42      58.56
C      25.56       8.61      57.80
C      25.61      11.01      53.38
C      25.54      11.00      51.97
C      25.41       9.78      51.27
C      25.37       8.59      52.04
C      26.65       6.54      53.80
C      26.58       5.32      53.07
C      24.04       5.41      53.12
C      24.08       6.63      53.84
C      22.78       4.92      52.69
C      21.60       5.67      52.88
C      21.64       6.91      53.56
C      22.87       7.33      54.09
C      27.91       7.15      54.02
C      29.10       6.64      53.45
C      29.02       5.40      52.76
C      27.79       4.75      52.60
C      25.40       7.27      54.22
C      25.28       4.68      52.75
C      25.59       9.88      55.63
C      20.52       7.74      53.61
C      25.26       9.68      49.89
C      30.28       7.38      53.49
C      25.31       4.95      58.64
C       9.32      24.03      23.60
C       8.30      24.74      24.28
C       9.36      24.11      26.53
C      10.39      23.40      25.86
C      11.39      22.76      26.65
C      11.40      22.79      28.07
C      10.36      23.50      28.70
C       9.36      24.15      27.94
C       7.30      25.39      23.52
C       7.28      25.32      22.11
C       8.27      24.60      21.41
C       9.28      23.98      22.18
C      11.69      24.06      23.94
C      12.71      23.39      23.21
C      11.36      21.23      23.26
C      10.33      21.88      23.98
C      11.16      19.90      22.82
C       9.92      19.25      23.02
C       8.87      19.90      23.70
C       9.12      21.18      24.23
C      11.80      25.45      24.16
C      12.84      26.23      23.59
C      13.86      25.55      22.90
C      13.81      24.15      22.74
C      10.43      23.34      24.36
C      12.62      21.94      22.89
C       8.27      24.81      25.77
C       7.59      19.35      23.75
C       8.27      24.42      20.03
C      12.79      27.62      23.63
C      12.40      22.10      28.78
C      -1.30      24.01      23.60
C      -0.18      24.53      24.28
C      -1.25      23.93      26.53
C      -2.38      23.39      25.86
C      -3.44      22.84      26.65
C      -3.42      22.82      28.07
C      -2.28      23.37      28.70
C      -1.22      23.91      27.94
C       0.89      25.08      23.52
C       0.84      25.13      22.11
C      -0.29      24.63      21.41
C      -1.33      24.06      22.18
C      -2.47      21.94      23.94
C      -3.55      21.38      23.21
C      -4.75      23.63      23.26
C      -3.67      24.20      23.98
C      -5.80      24.48      22.83
C      -5.75      25.87      23.02
C      -4.66      26.46      23.70
C      -3.67      25.60      24.23
C      -1.31      21.14      24.15
C      -1.16      19.86      23.59
C      -2.26      19.31      22.90
C      -3.45      20.05      22.74
C      -2.46      23.38      24.36
C      -4.76      22.19      22.89
C      -0.10      24.52      25.77
C      -4.49      27.84      23.75
C      -0.44      24.71      20.03
C       0.07      19.21      23.63
C      -4.51      22.30      28.78
C       3.99      33.22      23.60
C       3.88      31.98      24.28
C       3.90      33.21      26.52
C       4.00      34.46      25.86
C       4.05      35.65      26.65
C       4.02      35.64      28.06
C       3.92      34.38      28.69
C       3.86      33.19      27.94
C       3.82      30.78      23.52
C       3.89      30.80      22.11
C       4.02      32.02      21.41
C       4.05      33.21      22.18
C       2.78      35.26      23.94
C       2.84      36.47      23.21
C       5.39      36.39      23.26
C       5.34      35.17      23.98
C       6.64      36.88      22.82
C       7.82      36.13      23.02
C       7.79      34.89      23.70
C       6.55      34.47      24.23
C       1.51      34.65      24.15
C       0.32      35.16      23.59
C       0.40      36.40      22.91
C       1.64      37.05      22.74
C       4.03      34.53      24.36
C      25.57       0.02      22.89
C       3.83      31.92      25.77
C       8.90      34.06      23.75
C       4.17      32.12      20.03
C      -0.86      34.42      23.63
C       4.11      36.85      28.78
C      -1.33      24.13       9.48
C      -0.32      24.70       8.65
C      -1.55      23.92       6.56
C      -2.58      23.36       7.35
C      -3.68      22.74       6.69
C      -3.79      22.66       5.27
C      -2.74      23.23       4.52
C      -1.64      23.84       5.16
C       0.76      25.39       9.25
C       0.84      25.55      10.65
C      -0.14      24.99      11.49
C      -1.21      24.28      10.89
C      -3.73      24.19       9.32
C      -4.72      23.59      10.14
C      -3.42      21.41      10.16
C      -2.41      21.99       9.35
C      -3.22      20.10      10.67
C      -2.01      19.41      10.44
C      -0.99      19.99       9.67
C      -1.24      21.24       9.07
C      -3.83      25.57       9.03
C      -4.82      26.39       9.62
C      -5.82      25.77      10.39
C      -5.79      24.38      10.63
C      -2.52      23.42       8.87
C      -4.64      22.16      10.55
C      -0.37      24.60       7.17
C       0.27      19.42       9.59
C      -0.15      25.26      12.85
C      -4.74      27.78       9.53
C      -4.92      22.10       4.66
C       9.22      23.95       9.48
C       8.22      24.54       8.65
C       9.52      23.86       6.56
C      10.52      23.25       7.35
C      11.61      22.60       6.69
C      11.72      22.55       5.27
C      10.70      23.17       4.52
C       9.63      23.82       5.16
C       7.08      25.13       9.25
C       6.91      25.12      10.65
C       7.89      24.55      11.49
C       9.03      23.98      10.89
C      10.38      21.84       9.32
C      11.39      21.28      10.14
C      12.63      23.50      10.16
C      11.62      24.08       9.35
C      13.66      24.33      10.66
C      13.66      25.72      10.44
C      12.64      26.31       9.67
C      11.68      25.47       9.07
C       9.22      21.06       9.04
C       9.01      19.79       9.62
C      10.05      19.24      10.39
C      11.23      19.96      10.63
C      10.44      23.28       8.87
C      12.59      22.07      10.55
C       8.34      24.54       7.17
C      12.50      27.69       9.59
C       7.66      24.41      12.85
C       7.77      19.17       9.53
C      12.78      21.85       4.67
C       4.11      33.17       9.48
C       4.09      32.02       8.65
C       4.03      33.47       6.56
C       4.06      34.65       7.35
C       4.08      35.91       6.69
C       4.07      36.04       5.27
C       4.03      34.84       4.52
C       4.01      33.59       5.15
C       4.15      30.74       9.25
C       4.25      30.59      10.65
C       4.26      31.72      11.49
C       4.18      33.00      10.89
C       5.36      35.23       9.32
C       5.33      36.39      10.14
C       2.79      36.35      10.16
C       2.80      35.18       9.35
C       1.56      36.83      10.66
C       0.36      36.13      10.44
C       0.35      34.95       9.67
C       1.56      34.54       9.07
C       6.61      34.62       9.03
C       7.81      35.07       9.62
C       7.77      36.25      10.39
C       6.55      36.91      10.63
C       4.08      34.56       8.87
C       4.05      37.03      10.55
C       4.04      32.11       7.17
C      -0.78      34.14       9.59
C       4.49      31.59      12.84
C       8.97      34.30       9.53
C      25.56       0.20       4.66
C      30.75      17.67      39.34
C      29.74      17.10      38.52
C      30.97      17.88      36.43
C      32.01      18.44      37.22
C      -9.74      19.06      36.55
C      -9.63      19.13      35.14
C     -10.68      18.57      34.38
C      31.06      17.96      35.02
C      28.66      16.41      39.11
C      28.58      16.25      40.51
C      29.56      16.81      41.35
C      30.63      17.52      40.75
C      -9.69      17.61      39.19
C      -8.70      18.21      40.00
C     -10.01      20.39      40.02
C     -11.01      19.81      39.21
C     -10.20      21.70      40.53
C     -11.41      22.39      40.31
C     -12.43      21.81      39.53
C      30.66      20.56      38.93
C      33.25      16.23      38.90
C      -8.60      15.41      39.48
C      -7.60      16.03      40.26
C      -7.64      17.42      40.49
C      31.94      18.38      38.73
C      -8.78      19.64      40.41
C      29.80      17.20      37.03
C      29.15      22.38      39.45
C      29.57      16.54      42.71
C      34.16      14.02      39.39
C      -8.50      19.70      34.53
C      20.21      17.85      39.34
C      21.20      17.26      38.52
C      19.91      17.94      36.43
C      18.90      18.55      37.22
C      17.81      19.20      36.55
C      17.70      19.25      35.14
C      18.72      18.62      34.39
C      19.80      17.98      35.02
C      22.34      16.68      39.12
C      22.52      16.69      40.51
C      21.54      17.26      41.35
C      20.39      17.83      40.75
C      19.05      19.96      39.19
C      18.03      20.52      40.00
C      16.80      18.30      40.02
C      17.80      17.72      39.21
C      15.76      17.47      40.53
C      15.77      16.08      40.30
C      16.78      15.49      39.53
C      17.75      16.33      38.94
C      20.20      20.74      38.90
C      20.41      22.01      39.48
C      19.37      22.56      40.26
C      18.19      21.84      40.49
C      18.99      18.52      38.73
C      16.84      19.73      40.41
C      21.09      17.26      37.03
C      16.92      14.11      39.45
C      21.77      17.40      42.71
C      21.65      22.63      39.40
C      16.64      19.95      34.53
C      25.31       8.63      39.34
C      25.33       9.78      38.52
C      25.39       8.32      36.43
C      25.36       7.15      37.22
C      25.35       5.89      36.55
C      25.35       5.76      35.14
C      25.39       6.95      34.38
C      25.41       8.21      35.02
C      25.27      11.06      39.11
C      25.17      11.21      40.51
C      25.17      10.08      41.35
C      25.24       8.80      40.75
C      24.07       6.57      39.18
C      24.09       5.41      40.00
C      26.63       5.45      40.02
C      26.63       6.61      39.21
C      27.86       4.97      40.53
C      29.07       5.67      40.31
C      29.07       6.85      39.53
C      27.86       7.26      38.94
C      22.82       7.18      38.89
C      21.61       6.73      39.48
C      21.65       5.55      40.25
C      22.87       4.89      40.49
C      25.34       7.24      38.73
C      25.37       4.77      40.41
C      25.39       9.68      37.03
C      30.20       7.66      39.45
C      24.93      10.21      42.71
C      20.46       7.50      39.39
C      25.28       4.49      34.53
C      16.43      10.99      54.36
C      17.79      11.14      53.81
C      19.89      10.06      53.32
C      20.42      11.30      52.89
C      21.81      11.46      52.41
C      18.33      12.38      53.36
C      26.69      24.37      54.37
C      26.14      23.11      53.81
C      24.16      21.84      53.33
C      24.96      20.76      52.89
C      24.41      19.47      52.42
C      26.95      22.03      53.37
C      33.15       8.79      54.36
C      32.33       9.89      53.81
C      32.22      12.25      53.33
C      30.88      12.09      52.89
C      30.05      13.22      52.41
C      31.00       9.74      53.36
C      12.99      30.81      24.50
C      11.63      30.66      23.95
C       9.53      31.74      23.46
C       9.00      30.50      23.03
C       7.61      30.34      22.55
C      11.10      29.42      23.51
C       2.74      17.43      24.50
C       3.28      18.69      23.95
C       5.27      19.96      23.47
C       4.46      21.04      23.03
C       5.01      22.33      22.55
C       2.47      19.77      23.51
C      -3.73      33.00      24.50
C      -2.91      31.91      23.95
C      -2.80      29.55      23.46
C      -1.46      29.71      23.03
C      -0.62      28.58      22.55
C      -1.57      32.06      23.50
C      -4.84      30.95       8.62
C      -3.52      30.77       9.24
C      -1.44      31.83       9.83
C      -0.94      30.59      10.30
C       0.42      30.41      10.84
C      -3.02      29.53       9.72
C       5.08      17.49       8.62
C       4.56      18.73       9.24
C       2.61      20.00       9.83
C       3.43      21.05      10.30
C       2.90      22.32      10.85
C       5.39      19.78       9.72
C      11.77      32.81       8.62
C      10.95      31.75       9.24
C      10.83      29.42       9.83
C       9.51      29.61      10.30
C       8.67      28.52      10.85
C       9.63      31.94       9.72
C      34.27      10.85      38.48
C      32.94      11.02      39.10
C      30.86       9.97      39.69
C      30.36      11.21      40.16
C      29.00      11.38      40.71
C      32.45      12.27      39.58
C      24.35      24.31      38.48
C      24.86      23.07      39.10
C      26.81      21.80      39.69
C      25.99      20.75      40.16
C      26.52      19.48      40.71
C      24.03      22.02      39.58
C      17.65       8.99      38.48
C      18.47      10.05      39.10
C      18.59      12.38      39.69
C      19.92      12.19      40.16
C      20.75      13.28      40.70
C      19.79       9.86      39.58
C      19.77      18.64      45.18
C      20.67      17.59      45.69
C      21.57      16.57      47.70
C      22.24      15.62      46.90
C      23.06      14.53      47.47
C      21.37      16.64      44.89
C      31.64      17.65      45.18
C      30.28      17.39      45.69
C      28.95      17.13      47.70
C      27.79      17.02      46.90
C      26.44      16.85      47.47
C      29.11      17.26      44.89
C      24.86       7.86      45.18
C      25.31       9.17      45.69
C      25.74      10.45      47.70
C      26.23      11.51      46.90
C      26.76      12.77      47.47
C      25.78      10.25      44.89
C       9.66      23.16      15.32
C       8.75      24.21      15.83
C       7.86      25.23      17.84
C       7.18      26.18      17.03
C       6.36      27.27      17.61
C       8.05      25.16      15.03
C      -2.22      24.14      15.32
C      -0.85      24.41      15.83
C       0.47      24.67      17.84
C       1.63      24.78      17.04
C       2.98      24.95      17.61
C       0.31      24.54      15.03
C       4.56      33.94      15.31
C       4.11      32.63      15.83
C       3.68      31.35      17.83
C       3.19      30.29      17.03
C       2.67      29.03      17.61
C       3.64      31.55      15.03
C      16.85      22.61       0.68
C      15.90      21.62       1.22
C      14.00      21.31       2.69
C      14.04      19.92       2.43
C      13.06      18.96       2.99
C      15.94      20.22       0.96
C      -6.30      18.20       0.68
C      -6.68      19.51       1.22
C      -6.00      21.31       2.69
C      -7.23      21.97       2.43
C      -7.57      23.30       2.99
C      -7.91      20.18       0.96
C      22.87       3.34       0.68
C      24.21       3.02       1.22
C      25.42       1.53       2.69
C      26.61       2.26       2.43
C      27.92       1.89       2.98
C      25.40       3.75       0.96
C      12.57      19.19      30.55
C      13.52      20.18      31.09
C      15.42      20.49      32.55
C      15.38      21.88      32.29
C      16.36      22.84      32.85
C      13.48      21.58      30.82
C      -7.12      23.60      30.54
C      -6.74      22.28      31.09
C      -7.42      20.49      32.55
C      -6.19      19.83      32.29
C      -5.85      18.50      32.85
C      -5.51      21.62      30.82
C      27.97       1.35      30.54
C      26.64       1.68      31.09
C      25.42       3.17      32.55
C      24.24       2.43      32.29
C      22.92       2.80      32.85
C      25.45       0.94      30.82
N      18.61      10.05      53.77
N      19.61      12.39      52.94
N      20.68       9.00      53.37
N      17.77      13.58      53.39
N      24.79      22.96      53.78
N      26.31      20.91      52.94
N      22.84      21.69      53.37
N      28.27      21.91      53.39
N      32.87      11.15      53.78
N      30.35      10.85      52.94
N      32.75      13.46      53.37
N      30.23       8.66      53.39
N      10.82      31.75      23.91
N       9.81      29.41      23.08
N       8.75      32.81      23.51
N      11.65      28.22      23.53
N       4.64      18.84      23.92
N       3.11      20.89      23.08
N       6.58      20.11      23.51
N       1.16      19.89      23.53
N      -3.45      30.65      23.91
N      -0.92      30.95      23.08
N      -3.33      28.33      23.51
N      -0.81      33.14      23.53
N      -2.69      31.86       9.31
N      -1.76      29.51      10.21
N      -0.64      32.89       9.81
N      -3.59      28.34       9.68
N       3.21      18.90       9.31
N       4.78      20.88      10.21
N       1.29      20.17       9.82
N       6.71      19.88       9.68
N      11.48      30.49       9.31
N       8.98      30.86      10.21
N      11.34      28.20       9.82
N       8.88      33.03       9.68
N      32.12       9.94      39.18
N      31.18      12.29      40.07
N      30.06       8.91      39.68
N      33.01      13.46      39.54
N      26.21      22.90      39.18
N      24.65      20.92      40.08
N      28.13      21.63      39.68
N      22.71      21.91      39.55
N      17.94      11.31      39.18
N      20.44      10.94      40.07
N      18.08      13.60      39.68
N      20.54       8.77      39.54
N      20.81      17.50      47.04
N      22.10      15.70      45.54
N      21.60      16.52      49.04
N      21.28      16.57      43.57
N      30.13      17.32      47.04
N      27.93      17.10      45.54
N      28.90      17.12      49.04
N      29.10      17.38      43.57
N      25.32       9.33      47.04
N      26.23      11.36      45.54
N      25.77      10.50      49.04
N      25.89      10.20      43.57
N       8.61      24.30      17.18
N       7.32      26.10      15.68
N       7.83      25.28      19.18
N       8.15      25.23      13.71
N      -0.71      24.48      17.18
N       1.50      24.71      15.68
N       0.53      24.68      19.18
N       0.33      24.43      13.70
N       4.10      32.47      17.18
N       3.19      30.44      15.68
N       3.65      31.30      19.17
N       3.54      31.60      13.70
N      14.92      22.08       2.06
N      15.01      19.45       1.59
N      13.06      21.92       3.41
N      16.84      19.60       0.19
N      -5.79      20.12       2.06
N      -8.12      21.37       1.59
N      -5.00      21.82       3.40
N      -8.90      19.70       0.19
N      24.29       1.94       2.06
N      26.53       3.33       1.59
N      25.36       0.40       3.40
N      25.48       4.84       0.19
N      14.50      19.72      31.92
N      14.41      22.35      31.45
N      16.37      19.87      33.27
N      12.58      22.20      30.06
N      -7.63      21.67      31.92
N      -5.30      20.43      31.45
N      -8.43      19.98      33.27
N      -4.52      22.10      30.06
N      26.55       2.75      31.92
N      24.32       1.36      31.45
N      25.48       4.29      33.27
N       3.94      36.96      30.05
