16

C       4.12       4.98       6.03
C       5.50       4.67       5.83
C       5.99       3.44       6.28
C       6.43       5.56       5.07
O       5.97       6.65       4.57
O       7.63       5.17       4.92
H       2.26       4.27       6.83
H       7.04       3.20       6.12
C       5.18       2.49       6.92
C       3.80       2.80       7.12
C       3.31       4.03       6.67
C       2.87       1.92       7.87
O       5.75       1.34       7.31
O       3.33       0.82       8.38
O       1.67       2.30       8.03
O       3.55       6.14       5.63
