19

H       5.73       8.31       6.18
H       5.58       8.53       3.80
H       4.29       4.44       3.44
H       3.94       1.88       5.81
C       5.88       6.00       7.51
C       5.43       7.44       5.60
C       5.37       7.56       4.23
C       5.03       6.46       3.44
C       4.65       5.26       4.05
C       4.71       5.12       5.44
C       5.22       6.20       6.21
C       4.82       6.68       2.02
C       4.20       3.86       6.03
O       5.84       4.83       8.03
O       6.68       6.90       7.93
O       5.32       7.72       1.53
O       3.93       5.99       1.43
O       3.62       3.87       7.10
O       4.33       2.67       5.31
