220

Mn       7.13      11.92       2.99
Mn       7.79      11.03      21.27
Mn       9.79      11.60      18.02
Mn       1.77       3.80       8.07
Mn       2.43       3.15      11.91
Mn       4.43       2.58      15.16
Mn       3.58       3.03      19.13
Mn       2.92       3.92       0.85
Mn       0.92       3.34       4.10
Mn       8.94      11.15      14.05
Mn       8.28      11.79      10.21
Mn       6.28      12.37       6.96
H       8.08       8.78       3.13
H       9.73       9.06       2.60
H       7.46       5.54      21.87
H       9.14       5.94      21.48
H       8.01       6.69       2.01
H       9.71       6.87       1.59
H       7.64       8.07      21.37
H       8.42       8.13      16.44
H       4.08      -0.16      20.19
H       0.45      12.08       1.55
H       7.26       5.85      15.66
H       5.64      14.39      21.13
H       2.91      12.13       2.58
H       2.72       6.93       7.93
H       4.38       6.65       8.46
H       2.10       8.65      11.31
H       3.78       8.25      11.69
H       2.65       9.02       9.05
H       4.35       8.84       9.47
H       2.29       6.11      11.81
H       3.07       6.05      16.74
H       9.43      14.34      12.99
H       5.80       3.63       9.51
H       1.90       8.34      17.53
H       0.29      -0.20      12.05
H       8.27       3.59       8.48
H       2.63       6.16      18.99
H       0.98       5.88      19.52
H       3.25       9.41       0.25
H       1.57       9.01       0.64
H       2.70       8.26      20.11
H       1.00       8.08      20.53
H       3.07       6.87       0.75
H       2.29       6.82       5.68
H       6.64      15.10       1.93
H      10.27       2.87      20.57
H       3.45       9.10       6.46
H       5.07       0.56       0.99
H       7.80       2.82      19.54
H       7.99       8.02      14.19
H       6.33       8.30      13.66
H       8.61       6.30      10.81
H       6.93       6.70      10.43
H       8.06       5.92      13.07
H       6.36       6.11      12.65
H       8.42       8.84      10.31
H       7.65       8.90       5.38
H       1.28       0.61       9.13
H       4.91      11.32      12.61
H       8.81       6.61       4.60
H      10.42      15.15      10.07
H       2.45      11.36      13.64
C       8.74       8.74       2.25
C       8.32       7.66       0.07
C       8.73       7.37       1.54
C       8.23       9.71       1.23
C       7.66       7.59      16.99
C       4.92      -0.59      19.66
C       1.36      12.25       0.99
C       7.18       8.04      18.21
C       7.04       6.39      16.57
C       5.75      14.87      20.17
C       7.61       9.24      18.93
C       6.75      14.50      19.27
C       2.66      12.27       1.53
C       0.16      10.96      20.87
C       5.20       4.79      17.32
C       6.07       5.96      17.47
C       3.63      12.52       0.57
C       4.72       0.86      17.52
C       7.75      13.43      19.42
C       1.36      10.95      21.74
C       5.08      12.55       0.82
C       5.29      -0.19      18.38
C       3.39       6.97       8.80
C       2.97       8.05      10.98
C       3.38       8.35       9.51
C       2.87       6.00       9.83
C       2.30       6.60      16.19
C      10.27      14.77      13.52
C       6.72       3.46      10.07
C       1.82       6.15      14.97
C       1.69       7.79      16.61
C       0.39      -0.69      13.01
C       2.25       4.94      14.25
C       1.39      -0.32      13.91
C       8.01       3.44       9.53
C       5.52       3.22      12.31
C      10.55       9.40      15.87
C       0.72       8.23      15.71
C       8.98       3.20      10.49
C      10.08      13.33      15.66
C       2.39       0.75      13.77
C       6.71       3.23      11.44
C      10.43       3.17      10.25
C      10.65      14.37      14.80
C       1.97       6.21      19.87
C       2.39       7.29      22.05
C       1.98       7.58      20.58
C       2.48       5.24      20.89
C       3.05       7.36       5.13
C       5.79      15.54       2.46
C       9.35       2.70      21.13
C       3.53       6.91       3.91
C       3.67       8.56       5.55
C       4.96       0.08       1.95
C       3.11       5.70       3.19
C       3.97       0.45       2.85
C       8.05       2.68      20.59
C      10.55       3.99       1.25
C       5.52      10.16       4.80
C       4.64       8.99       4.65
C       7.08       2.43      21.55
C       5.99      14.09       4.60
C       2.96       1.51       2.70
C       9.36       4.00       0.38
C       5.63       2.40      21.30
C       5.42      15.14       3.74
C       7.33       7.97      13.32
C       7.74       6.89      11.14
C       7.33       6.60      12.61
C       7.84       8.95      12.29
C       8.41       8.35       5.93
C       0.44       0.18       8.60
C       3.99      11.49      12.05
C       8.89       8.80       7.15
C       9.03       7.16       5.51
C      10.32      15.64       9.11
C       8.46      10.01       7.87
C       9.32      15.27       8.21
C       2.70      11.51      12.59
C       5.19      11.73       9.81
C       0.16       5.55       6.25
C       9.99       6.72       6.41
C       1.73      11.75      11.63
C       0.63       1.62       6.46
C       8.32      14.20       8.35
C       4.00      11.72      10.68
C       0.28      11.78      11.88
C       0.06       0.58       7.32
S       5.94       7.00      18.84
S       6.66      -1.08      17.80
S       2.95      11.21      21.12
S       0.59       7.19      14.34
S       1.31      15.26      15.38
S       8.30       2.97      12.06
S       4.77       7.95       3.28
S       4.05      16.02       4.32
S       7.76       3.74       1.00
S      10.12       7.76       7.78
S       9.40      -0.31       6.74
S       2.41      11.98      10.06
N       7.99       9.09       0.08
N       2.63       6.63      10.98
N       2.72       5.86      22.04
N       8.08       8.32      11.14
O       7.24       9.34      20.17
O       8.28      10.11      18.31
O       5.88      11.30      21.98
O       9.77      10.62      21.44
O       4.22       4.70      18.16
O       3.66       1.49      17.92
O       0.33      11.27      19.65
O       5.29       1.09      16.42
O       8.41      13.11      18.38
O       7.89      12.90      20.58
O       5.42      12.27       2.02
O       5.44       3.98      16.38
O       8.05      10.96       1.41
O       1.88       4.84      13.01
O       2.93       4.07      14.87
O       0.53       2.89      11.20
O       4.42       3.55      11.74
O       9.57       9.49      15.02
O       9.01      12.69      15.26
O       5.68       2.91      13.53
O      10.65      13.09      16.76
O       3.04       1.07      14.81
O       2.53       1.28      12.60
O       0.06       3.44       9.04
O       0.08      10.20      16.81
O       2.69       4.75       9.65
O       3.48       5.61       1.95
O       2.43       4.84       3.81
O       4.83       3.65       0.14
O       0.94       4.33       0.68
O       6.49      10.25       3.96
O       7.05      13.45       4.20
O      10.38       3.68       2.47
O       5.42      13.86       5.70
O       2.31       1.83       3.74
O       2.82       2.04       1.54
O       5.29       2.67      20.10
O       5.27      10.97       5.74
O       2.67       3.99      20.71
O       8.83      10.10       9.11
O       7.78      10.87       7.25
O      10.19      12.06      10.92
O       6.29      11.39      10.38
O       1.14       5.46       7.10
O       1.70       2.26       6.86
O       5.03      12.03       8.59
O       0.06       1.85       5.36
O       7.67      13.88       7.31
O       8.18      13.67       9.52
O      10.65      11.51      13.08
O      10.63       4.75       5.31
O       8.02      10.20      12.47
