22

Cr       9.13       2.02       4.72
Cr      12.54       2.65       4.72
Cr      10.42       5.24       4.72
C      11.17       0.83       6.70
C      11.17       0.83       2.74
C      12.17       4.71       6.84
C      12.17       4.71       2.59
C       8.28       4.05       6.70
C       8.28       4.05       2.74
O       8.05       2.89       6.26
O       8.05       2.89       3.17
O      10.05       1.07       6.14
O      10.05       1.07       3.29
O      12.28       1.26       6.24
O      12.28       1.26       3.19
O      12.95       3.96       6.12
O      12.95       3.96       3.31
O      11.76       5.77       6.24
O      11.76       5.77       3.20
O       9.09       4.89       6.14
O       9.09       4.89       3.29
O      10.69       3.31       4.72
