13

O      -1.99      -5.80      12.94
O      -4.09      -5.14      19.35
S      -3.65      -5.23      16.45
H      -0.51      -6.48      15.11
C      -2.88      -5.53      13.80
C      -1.33      -6.15      15.75
H      -0.51      -6.48      17.79
C      -2.52      -5.67      15.22
C      -2.88      -5.53      19.11
C      -1.33      -6.14      17.16
C      -2.52      -5.66      17.69
O      -1.98      -5.79      19.97
O      -4.09      -5.14      13.55
