60

O       1.46      13.86      12.27
O       1.47       5.15       6.75
O       1.42      12.26       5.15
O       1.46       6.73      13.92
C       1.99      13.26       5.72
O       1.47      12.27      13.87
C      -1.98      13.27       5.72
O       1.48      13.85       6.73
C       1.99      13.28      13.27
Ti      -0.00      10.85       5.59
C      -1.98      13.28      13.29
Ti      -0.04       8.13       5.52
Ti      -0.04      13.45      10.85
O       1.46       6.73       5.15
Ti       0.05      10.86      13.50
Ti       0.01      13.53       8.13
C      -1.98       5.72       5.74
Ti       0.05       5.55       8.14
C       1.99       5.73       5.73
Ti      -0.00       5.56      10.87
Ti      -0.00       8.14      13.49
C      -1.99       5.74      13.30
O       1.42       5.19      12.28
H       0.02       8.15       8.11
C       1.98       5.73      13.31
H      -0.04       8.16      10.90
H       0.01      10.92       8.18
H       0.02      10.86      10.89
O      -0.01       3.50       8.38
O       0.00      10.64       3.51
O       0.00       8.38       3.49
O      -0.00       3.51      10.64
O      -1.21       5.74       9.50
O      -1.24      13.28       9.49
O      -1.25       9.50       5.73
O      -1.20       9.50      13.28
C       0.00       9.52       2.90
C      -0.00       9.49      16.15
C      -0.01       2.90       9.51
C       0.00      16.14       9.53
O      -1.41       5.15       6.74
O      -1.47      13.89      12.28
O      -1.47       6.74      13.90
O      -1.40      12.27       5.14
O      -1.41      12.27      13.84
O      -1.47       6.73       5.14
O      -1.46      13.86       6.73
O      -1.43       5.19      12.28
O      -0.00       7.45       7.44
O       0.00      11.55      11.57
O      -0.00       7.46      11.57
O       0.00      11.57       7.46
O       1.21      13.27       9.50
O       1.25       5.74       9.51
O       1.25       9.49      13.29
O       1.21       9.49       5.75
O       0.00      15.50      10.65
O      -0.00       8.37      15.52
O      -0.01      10.62      15.53
O       0.00      15.55       8.39
