38

H       4.41       9.47      12.74
C       3.97       9.47      13.72
C      -1.90      13.22      11.47
H      -2.46      12.91      12.34
C       2.41       9.37      15.31
H       1.44       9.27      15.79
H       0.57      13.18       9.31
C      -0.32      13.36       9.89
H       0.09      11.06      14.71
H       1.57      10.86      10.02
H      -1.43       9.98      12.52
C       2.64       9.70      14.01
H       3.09      11.92      12.19
C      -0.83      12.57      10.90
H       1.84       8.11      11.05
C       0.41      11.00      13.65
H       0.48       6.35      11.98
H      -0.48       7.58      12.87
C       1.25      10.91      11.08
H       1.26       7.29      13.31
C       0.87       9.71      11.96
C       0.81      12.19      12.79
C       1.67      10.28      13.11
H      -0.18      13.86      13.58
C      -0.00      11.63      11.62
H       1.48      15.50      13.19
H       1.20      14.70      11.61
C       0.53       7.34      12.47
H       2.63      14.24      12.62
C       1.56      14.54      12.64
N       4.54       9.04      14.84
N      -2.04      14.38      10.83
N       3.56       8.96      15.81
N      -1.06      14.46       9.86
N       0.94       8.33      11.50
C      -0.41      10.41      12.47
C       2.07      11.50      12.27
N       0.76      13.54      13.32
