28

C       8.07      13.02      12.96
N       6.66      12.93      12.68
C       8.58      12.49      14.09
N       9.54      13.21      14.86
F       6.59      10.38      12.87
F      10.98      14.14      13.11
C       8.75      10.48      15.65
H       9.54      10.82      16.31
H       7.73      13.61      10.06
C       8.71      13.62      10.52
C       8.18      11.15      14.58
C       9.01      13.41      11.86
C       5.76      13.34      13.74
C       8.97      13.96      15.96
H       6.36      13.27      11.76
H       4.72      13.13      13.44
H       5.86      14.42      13.94
H       5.96      12.78      14.68
N       7.13       9.24      14.88
N      10.79      14.19      10.80
N       8.11       9.31      15.78
H      10.36      12.66      15.14
H       9.76      14.58      16.43
H       8.56      13.27      16.73
N       9.80      14.11       9.89
H       8.17      14.63      15.61
C       7.22      10.29      14.07
C      10.34      13.76      11.98
