38

H       6.99       5.10       3.79
C       7.55       5.42       2.92
C      13.41       1.66       5.16
H      13.85       1.66       4.18
C       9.13       5.56       1.34
H      10.02       5.39       0.76
C      11.85       1.56       6.75
H      10.89       1.46       7.24
H      11.11       3.18       1.49
H       9.45       3.13       6.13
H      12.52       4.20       3.77
C       8.63       4.78       2.35
H       8.05       2.11       3.84
C      12.09       1.88       5.45
C      10.75       3.18       2.54
H       9.15       5.97       5.13
C       9.82       3.13       5.08
H      10.76       7.68       4.82
H      10.51       6.93       3.21
H      11.95       6.49       4.22
C      10.22       4.37       4.29
C      10.37       1.93       3.35
H      11.43       0.40       2.43
C       9.46       3.84       3.07
H      10.08      -1.44       3.21
H       9.04      -0.27       4.10
C      11.12       2.47       4.56
H      10.76      -0.53       4.62
C      10.88       6.74       4.24
C      10.08      -0.47       3.74
N       7.40       6.58       2.27
N      13.99       1.23       6.28
N       8.38       6.65       1.30
N      13.01       1.15       7.25
C      11.51       3.74       3.78
N      10.11       5.69       4.87
N      10.51       0.58       2.84
C       9.06       2.57       3.85
