38

C       4.39      10.19       2.92
H       4.95      10.51       3.79
C      -1.47      13.95       5.16
H      -1.91      13.95       4.18
H       1.91      10.22       0.76
C       2.81      10.05       1.34
H       1.06      14.15       7.24
C       0.09      14.05       6.75
H       0.84      12.44       1.49
H       2.48      12.46       6.13
C       3.31      10.83       2.35
H      -0.58      11.42       3.76
C      -0.14      13.73       5.45
H       3.89      13.49       3.85
C       1.19      12.43       2.54
C       2.11      12.47       5.08
C       1.72      11.24       4.28
H       2.77       9.63       5.12
H       1.16       7.93       4.80
C       1.57      13.68       3.36
H       1.40       8.69       3.19
H      -0.03       9.13       4.21
C       2.48      11.77       3.07
C       0.82      13.13       4.56
H       0.52      15.22       2.43
H       1.88      17.05       3.23
H       2.91      15.87       4.12
C       1.04       8.87       4.22
H       1.19      16.14       4.63
C       1.88      16.07       3.76
N       4.54       9.03       2.27
N      -2.05      14.38       6.28
N       3.56       8.95       1.30
N      -1.06      14.46       7.25
C       0.43      11.88       3.78
N       1.82       9.91       4.86
N       1.45      15.03       2.86
C       2.88      13.03       3.85
