28

C       9.33      10.93       5.54
N       8.35      10.22       6.28
C       9.84      10.41       4.39
N      11.24      10.52       4.10
F       6.92       9.28       4.54
F      11.31      13.06       4.31
C       9.20       9.79       1.96
H      10.18       9.80       1.50
C       9.19      12.93       7.11
H       8.41      12.59       7.77
C       8.90      10.00       3.30
C       9.75      12.25       6.03
C       8.89       9.27       7.23
H       7.59      10.80       6.67
H       8.06       8.72       7.72
H       9.48       9.80       8.00
H       9.53       8.53       6.71
C      12.19      10.13       5.12
N       7.12       9.23       2.24
N      10.78      14.18       6.32
H      11.56      10.35       3.13
H      12.89      10.96       5.31
H      12.78       9.25       4.77
H      11.70       9.86       6.08
N       8.11       9.30       1.34
N       9.80      14.11       7.22
C       7.57       9.65       3.42
C      10.71      13.12       5.52
