174

Cu      -0.34       9.90      11.25
Cu       8.64      -0.11       7.63
Cu       8.13      -1.67      16.57
Cu       4.92       1.27       9.43
Cu      -4.03      11.25      13.02
Cu      -3.52      12.84       4.08
H       1.09       3.65       6.72
H       2.89       5.30       7.25
H       3.36       3.51      11.14
H       1.56       1.89      10.60
H       4.79       5.15      11.50
H       4.51       6.15       8.61
H      -1.67       8.02      13.03
H       6.35       6.40      12.86
H       6.11       7.39       8.66
H      -1.93       8.97       9.02
H       1.37      -1.08      19.24
H       4.15       2.52       0.33
H      -1.75      13.73       1.12
H      -4.45      10.09      19.95
H       5.32       1.12       1.76
H      -0.72      14.16       3.21
H       8.51       0.97       4.93
H       6.93       0.95       3.02
H       0.10      13.45       5.35
H       1.78      13.56       7.14
H       7.96      -1.23      11.93
H       0.66      -1.41      15.13
H       2.25       0.32      14.29
H       1.60       2.76      14.51
H      -0.66       3.31      15.47
H       7.77       1.44      16.21
H       3.50       7.51      13.93
H       1.70       5.86      13.40
H       1.23       7.66       9.50
H       3.03       9.27      10.04
H      -0.20       6.01       9.15
H       0.11       5.00      12.04
H       6.26       3.13       7.64
H      -1.74       4.74       7.80
H      -1.49       3.76      12.00
H       6.54       2.18      11.65
H       3.24      12.25       1.41
H       0.46       8.65      20.32
H       6.37      -2.57      19.52
H       9.08       1.07       0.68
H      -0.72      10.07      18.90
H       5.32      -3.00      17.43
H      -3.90      10.17      15.73
H      -2.32      10.21      17.63
H       4.49      -2.28      15.30
H       2.81      -2.41      13.51
H      -3.35      12.38       8.73
H       3.94      12.57       5.51
H       2.36      10.85       6.37
H       3.02       8.41       6.15
H       5.27       7.86       5.17
H      -3.17       9.73       4.42
C       0.19       1.68       8.29
C       1.21       2.69       8.64
C       1.58       3.66       7.69
C       2.58       4.57       7.99
C       3.24       4.55       9.24
C       2.86       3.57      10.18
C       1.85       2.65       9.89
C       5.00       5.73      10.61
C       4.29       5.52       9.47
C      -2.17       7.82      12.08
C       6.69       6.93      11.97
C       6.06       6.71      10.73
C       6.54       7.48       9.65
C      -2.32       8.36       9.83
C      -0.53      -2.76      18.45
C       0.50      -3.03      19.49
C       1.43      -2.02      19.79
C       3.42       1.74       0.11
C       3.46       0.55       0.86
C      -1.77      14.66       0.55
C      -3.73      10.88      20.19
C       4.47       0.44       1.89
C       4.45      -0.34       3.00
C       7.58       0.42       4.98
C       6.68       0.40       3.92
C       5.48      -0.34       4.02
C       1.00      14.05       5.20
C       6.22      -1.00       6.23
C       1.04      10.31      13.66
C       1.54      11.37      12.69
C       2.49      12.37      12.90
C       7.45      -2.53      14.23
C       7.20      -1.99      11.80
C       7.19      -1.37       9.39
C       2.40      12.90      10.51
C       1.44      11.89      10.37
C       0.78      11.36       9.10
C       0.41      -0.35      15.18
C       1.30       0.63      14.73
C       0.93       1.97      14.84
C      -0.33       2.28      15.37
C      -1.16       1.25      15.79
C       4.42       9.47      12.35
C       3.39       8.46      12.00
C       3.02       7.50      12.95
C       2.01       6.60      12.65
C       1.36       6.61      11.41
C       1.74       7.60      10.46
C       2.74       8.51      10.76
C      -0.40       5.42      10.04
C       0.31       5.63      11.18
C       6.77       3.33       8.58
C      -2.09       4.22       8.69
C      -1.46       4.44       9.93
C      -1.93       3.67      11.01
C       6.93       2.79      10.84
C       5.15      13.93       2.19
C       4.12      14.19       1.15
C       3.18      13.19       0.86
C       1.19       9.43      20.54
C       1.15      10.62      19.79
C       6.39      -3.50      20.09
C       8.35       0.29       0.45
C       0.13      10.74      18.76
C       0.16      11.51      17.65
C      -2.97      10.73      15.68
C      -2.08      10.76      16.73
C      -0.88      11.51      16.63
C       3.59      -2.88      15.45
C      -1.63      12.16      14.42
C       3.55       0.86       7.01
C       3.07      -0.21       7.98
C       2.12      -1.22       7.76
C      -2.84      13.69       6.43
C      -2.58      13.14       8.86
C      -2.58      12.51      11.27
C       2.23      -1.75      10.15
C       3.19      -0.75      10.30
C       3.87      -0.24      11.56
C       4.19      11.52       5.46
C       3.31      10.54       5.92
C       3.69       9.20       5.82
C       4.94       8.89       5.27
C       5.77       9.93       4.84
N      -1.71       8.52      11.02
N       7.34      -0.25       6.13
N       1.05      11.21      11.45
N      -0.79      -0.05      15.71
N       6.31       2.64       9.64
N      -2.74      11.40      14.52
N       3.56      -0.05       9.21
N       5.40      11.22       4.93
O      -0.02       0.67       9.06
O      -0.47       1.76       7.19
O       4.53      11.46      17.78
O      -0.79      -1.50      18.21
O       1.59      10.19      14.76
O       0.07       9.58      13.18
O       6.79      -1.95      15.17
O       4.38      12.29      14.35
O       3.86      13.33       8.66
O       6.70      -0.21       9.25
O       1.05      11.87       8.00
O      -0.02      10.35       9.29
O       4.62      10.49      11.60
O       5.11       9.36      13.44
O       0.11      -0.30       2.85
O       5.41      12.67       2.43
O       3.02       0.96       5.90
O       4.50       1.63       7.50
O      -2.18      13.12       5.49
O       0.23      -1.14       6.30
O       0.76      -2.17      11.99
O      -2.11      11.35      11.40
O       3.66      -0.80      12.65
O       4.63       0.81      11.39
