12

H      -0.21       3.68      16.28
H       0.34       4.37      14.17
O       2.65       3.08      17.05
O       1.75       2.20      15.21
O       0.83       4.93      17.40
O       2.05       5.31      14.56
O       0.48       7.33      14.84
O      -1.38       6.12      15.12
C       1.77       3.03      16.13
C       0.66       4.13      16.22
C       0.69       4.94      14.89
C      -0.15       6.24      14.96
