16

Sr      -0.19       1.17      18.29
Sr      -3.43      -1.00      18.50
C       3.04       1.30      16.60
O      -1.46       2.68      19.75
O       0.38       1.80      20.71
C      -1.14       3.04      22.05
O      -1.42      -0.89      19.80
O       0.77      -0.97      19.40
O      -2.15      -2.51      17.04
C      -0.70       2.47      20.76
O      -4.00      -1.63      16.08
C      -0.23      -1.13      20.19
O       2.04       1.14      17.39
O      -2.19       1.07      16.99
C      -2.48      -2.87      14.74
C      -2.91      -2.30      16.03
