213

Cd      -1.93       3.40      13.75
Cd      -3.75       0.21      13.24
Cd       0.99       5.56      14.18
Cd      -6.39      -2.32      13.01
Cd       7.39      -5.30      12.24
Cd       3.86       7.86      13.22
H       5.53       3.94       3.64
H       4.41       3.62       4.99
H       8.73      10.58       9.55
H       5.77       0.80       5.72
H       5.14       2.05       6.84
H       6.38       6.06       1.97
H       4.01       4.82       8.73
H      10.57       6.31       6.53
H       9.88       7.48       7.69
H      -3.92      10.40       6.53
H      -3.28       9.25       7.73
H       8.23       5.84       3.65
H       7.00       4.93       5.35
H       7.73       3.91       6.62
H       9.14       0.81       8.55
H      -2.04       4.19      11.00
H       8.59      10.14       3.79
H      10.55       9.56       4.62
H       9.38       9.39       5.97
H      -2.12       6.17       9.53
H       5.13      -2.04       9.25
H       5.01      -0.12       7.69
H       9.24      -1.11      10.11
H       6.72      10.34       2.20
H       3.98       6.69      10.36
H       7.22       1.41       3.86
H       8.41       1.99       5.07
H      -1.49      -2.74       9.74
H       0.43      -1.92       8.68
H       0.59      -0.76       7.32
H      -0.82       1.78      10.94
H      11.14       0.43       1.72
H       3.70      -1.81       6.74
H       2.45      -1.22       5.59
H      -3.14      11.56       8.28
H      -0.33      -3.40       6.85
H      -0.82      12.26       5.68
H       2.32      11.24       3.82
H       3.05      -3.31       8.62
H       1.10      11.83       7.29
H       7.66       6.34       7.03
H       7.65       8.19       8.69
H       6.44      -0.81       3.10
H      -0.34      -0.02       9.36
H      11.10      11.72       3.28
H       9.27       0.86       3.25
H       2.10      10.96       9.09
H      -3.02      11.96       5.02
H       4.22      11.31       2.24
H      -0.43      -0.41       3.50
H       3.47       4.34       3.01
H      10.93       4.47       0.26
H       9.73       5.19       8.38
H       4.54      -0.88       4.70
H       2.63       9.05      10.54
H      13.67      -0.65       1.80
H       3.39       2.41      11.57
H      -2.07      10.61      10.16
H      -1.50       8.70      11.67
H      12.04       7.17       4.66
H      -2.73       7.30       6.05
H       9.81       3.20       9.89
H       1.68       4.48       1.36
H      -2.03       6.50       3.93
H       3.90       0.58       9.93
H       9.04       4.93       1.81
H      -0.42       6.12       2.10
H      -1.42      10.76       3.57
H      -5.50      -3.73      10.96
H       3.79       0.09       2.32
H       1.97       0.25       0.61
H       0.25      10.35       1.76
C       6.41       2.83       5.27
C      11.27       8.36       6.27
C       5.21       3.19       4.38
C       6.42       8.22       1.99
C      -4.61      -5.07       9.59
C       7.08       0.45       8.00
C       6.01       1.72       6.26
C       6.86       6.94       2.39
C       4.80       5.56       8.74
C      10.79       7.19       7.15
C       7.18      -1.72       9.78
C      -4.08       3.57      10.56
C      -4.17       9.53       7.15
C      -4.13       5.80       8.86
C       7.89       6.82       3.32
C       6.82       4.10       6.04
C       8.26       0.18       8.71
C      -2.95       4.42      10.46
C       8.11       9.24       3.42
C       7.22      -2.94      10.61
C      -5.16      10.96       8.81
C      10.13       8.86       5.37
C      -2.98       5.52       9.62
C       6.00      -1.42       9.08
C       5.94      -0.34       8.20
C       8.31      -0.89       9.59
C       5.84       5.45       7.79
C       7.05       9.35       2.52
C       4.80       6.60       9.66
C       7.57       2.29       4.42
C       5.83       7.56       9.65
C      -2.37      -3.39       9.67
C       1.13      -1.48       7.95
C       1.26       2.23      11.34
C       1.70      -2.61       7.08
C       0.22       1.53      10.71
C       9.05       2.94       2.66
C      10.69       1.42       1.75
C       2.81      -2.09       6.16
C      -2.35      -4.52       8.85
C      12.33       2.16       0.00
C      11.18       2.43       0.91
C       0.97       3.34      12.29
C       2.48      13.31       4.37
C       0.54      -3.15       6.22
C      -4.09       2.37      11.42
C       2.85      12.17       3.65
C       2.29      -3.73       7.94
C      -0.03      10.90       9.51
C      -0.78      -2.35       4.37
C       6.88       6.40       7.77
C       6.86       7.44       8.70
C       1.82       0.18       9.53
C      11.43      13.66       2.43
C      -3.45      -1.88      11.32
C       0.97       7.93       0.72
C       4.62      13.43       2.55
C       5.90      -1.74       3.27
C       5.31       8.36       1.02
C       0.49       0.50       9.81
C      11.70      12.63       3.34
C       9.63       1.67       2.62
C       1.30      10.47       9.62
C      -3.20      12.76       4.31
C       3.91      12.22       2.75
C       5.80      13.53       1.66
C      -1.02      -1.32       3.44
C       0.93       7.61      12.09
C       5.83       8.73      10.56
C       3.15       3.43       2.50
C      10.57       3.70       0.93
C      -5.26       4.97       8.95
C       4.84      -1.78       4.17
C      10.29      13.50       1.50
C       3.74       2.19       2.78
C       1.60       9.39      10.46
C      12.19      14.84       2.48
C       2.59       1.88      11.06
C       1.70       2.37       0.87
C      -3.49      -3.09      10.46
C       0.01       8.20       1.81
C      -1.05      10.26      10.25
C       0.60       8.74      11.19
C       8.52       7.96       3.83
C      -0.73       9.20      11.08
C      -3.45       7.85       5.43
C      -5.22       3.86       9.80
C       2.13       3.51       1.56
C      -1.56       7.35       3.46
C       2.88       0.86      10.16
C       9.51       3.95       1.79
C      -0.64       7.13       2.43
C      -1.85       8.66       3.85
C      -1.19       9.75       3.25
C      -6.44      -5.30      14.21
C      -4.60      -3.94      10.40
C       3.32       1.04       2.10
C       2.31       1.13       1.15
C      -0.26       9.52       2.24
O       8.24      -3.14      11.42
O       6.32      -3.81      10.53
O       7.14       1.51       7.13
O       9.53       7.72       4.72
O       4.75       2.01       3.70
O      -4.04       6.91       8.07
O      -5.26       9.84       8.03
O       5.72       4.40       6.92
O      -4.42      -1.72      12.22
O       1.14       6.69       0.37
O       4.78       9.53       0.87
O       6.61      14.47       1.74
O      -0.25       3.77      12.38
O       6.03      12.54       0.80
O       6.62       9.69      10.38
O      12.95       1.04       0.13
O       4.95       8.80      11.54
O      -2.54      -1.04      11.26
O      -3.14       2.25      12.35
O      10.11      14.34       0.51
O       2.14       7.14      12.07
O       9.44      12.59       1.69
O       1.92       3.86      12.95
O       5.61      -4.70      13.49
O       4.90       7.33       0.39
O      -7.04      -4.16      14.02
O       9.08      -6.33      13.58
O       8.02       3.30       3.50
O       1.45      13.14       5.26
O       2.20      -0.81       8.64
O       1.25      -4.37       8.70
O      -4.93       1.47      11.29
O       0.19      -2.10       5.30
O       0.03       7.12      12.83
O       1.62       8.88       0.19
O      -2.78       8.97       4.81
