20

H      -0.19       7.46       2.73
H       1.19       7.37       0.66
H       1.58      11.68       0.93
H       0.15      11.59       2.95
H       4.12       7.44      -2.72
H       2.75       7.37      -0.64
H       2.37      11.67      -0.95
H       3.79      11.56      -2.96
C       0.23       8.36       2.28
C       1.01       8.33       1.13
C       1.54       9.52       0.60
C       1.21      10.71       1.27
C       0.41      10.68       2.41
C       3.71       8.35      -2.27
C       2.93       8.32      -1.12
C       2.40       9.52      -0.60
C       2.74      10.70      -1.28
C       3.53      10.66      -2.41
N      -0.07       9.52       2.92
N       4.00       9.50      -2.91
