28

H       5.73       7.47       3.09
H       5.93       8.02       1.43
H      -0.29       9.56       0.90
H      -0.61       7.94       1.49
H       5.72       9.43       5.05
H       5.92      11.09       4.50
H      -0.30      11.60       2.93
H      -0.63      11.00       4.56
H       7.24       9.43       3.10
H       6.10      10.38       2.15
H      -1.91       9.76       2.72
H      -0.98       8.72       3.77
C       4.03       8.46       2.29
C       1.30       8.73       2.01
C       5.52       8.31       2.41
C      -0.17       8.90       1.77
C       4.02      10.23       4.05
C       1.29      10.50       3.77
C       5.51      10.12       4.21
C      -0.18      10.72       3.59
C       3.36       9.41       3.10
C       1.97       9.55       2.96
C       6.17       9.60       2.93
C      -0.89       9.49       3.00
N       1.98       7.82       1.30
N       3.35       7.70       1.43
N       1.96      11.21       4.68
N       3.34      11.09       4.81
