28

H       8.90       3.17       1.21
H       9.10       4.83       1.76
H       2.87       5.35       3.32
H       2.55       4.75       1.69
H       8.90       1.21       3.17
H       9.10       1.76       4.83
H       2.87       3.32       5.35
H       2.55       1.69       4.75
H      10.41       3.17       3.17
H       9.27       4.11       4.11
H       1.26       3.52       3.52
H       2.19       2.47       2.47
C       7.20       3.97       2.21
C       4.47       4.24       2.48
C       8.68       3.85       2.05
C       3.00       4.47       2.66
C       7.20       2.21       3.97
C       4.47       2.48       4.24
C       8.68       2.05       3.85
C       3.00       2.66       4.47
C       6.53       3.15       3.15
C       5.14       3.30       3.30
C       9.34       3.34       3.34
C       2.28       3.25       3.25
N       5.14       4.95       1.57
N       6.52       4.83       1.45
N       5.14       1.57       4.95
N       6.52       1.45       4.83
