28

H      21.50       9.34      11.30
H      21.70       7.68      10.75
H      15.48       7.16       9.19
H      15.16       7.76      10.82
H      21.50      11.30       9.34
H      21.70      10.75       7.68
H      15.48       9.19       7.16
H      15.16      10.82       7.76
H      23.02       9.34       9.34
H      21.88       8.39       8.40
H      13.86       8.99       8.99
H      14.80      10.03      10.04
C      19.80       8.54      10.30
C      17.07       8.26      10.03
C      21.29       8.65      10.46
C      15.60       8.03       9.85
C      19.81      10.30       8.54
C      17.07      10.02       8.26
C      21.29      10.46       8.66
C      15.60       9.85       8.04
C      19.13       9.36       9.36
C      17.74       9.21       9.21
C      21.95       9.17       9.17
C      14.89       9.26       9.26
N      17.75       7.55      10.94
N      19.12       7.67      11.06
N      17.75      10.94       7.55
N      19.12      11.06       7.68
