78

H      11.29      22.95      32.59
H      14.71      21.75      34.90
H      12.26      25.04      36.24
H       8.86      27.76      35.62
H       5.57      29.10      33.18
H       6.05      27.29      31.54
H       7.95      25.72      31.93
C       6.30      33.94      38.67
C       5.47      33.75      37.56
C       5.62      32.63      36.74
C       6.62      31.68      37.01
C       7.47      31.88      38.12
C       7.31      33.00      38.96
C       4.44      34.79      37.24
C       8.19      33.20      40.05
C       8.96      33.36      40.98
C      10.88      32.65      42.34
C      11.79      32.88      43.39
C      11.64      34.03      44.19
C      10.62      34.95      43.92
C       9.74      34.74      42.86
C       9.86      33.58      42.06
C       6.96      29.62      35.41
C       6.80      30.57      36.16
H       6.17      34.82      39.29
H       4.96      32.50      35.88
H       8.25      31.16      38.33
H      10.99      31.76      41.72
H      12.33      34.20      45.01
H      10.53      35.85      44.53
H       8.96      35.46      42.63
O      12.58      21.10      31.60
O      14.39      20.50      32.80
H      18.08      28.13      44.45
H      15.75      31.54      45.63
H      14.40      29.04      42.37
H      14.98      25.66      39.65
H      17.41      22.37      38.29
H      19.06      22.85      40.10
H      18.69      24.75      41.66
O       4.33      35.80      38.00
O       3.71      34.59      36.19
C      17.20      28.74      44.32
C      17.01      29.86      45.14
C      15.88      30.68      44.98
C      14.93      30.39      43.99
C      15.13      29.27      43.15
C      16.26      28.44      43.31
C      18.04      30.20      46.15
C      16.45      27.34      42.44
C      16.60      26.41      41.66
C      15.88      25.05      39.75
C      16.09      23.99      38.84
C      17.25      23.19      38.99
O      17.83      31.26      46.88
C      17.96      24.52      40.88
C      16.80      25.33      40.77
C      12.86      31.98      43.62
C      13.80      31.23      43.80
C      18.17      23.46      40.00
C      11.92      23.08      33.46
C      13.03      22.25      33.65
C      13.85      22.40      34.77
C      13.58      23.41      35.72
C      12.47      24.25      35.52
C      11.63      24.10      34.40
C      13.34      21.23      32.61
C      10.54      24.97      34.20
C       9.60      25.74      34.03
C       8.25      27.65      34.73
C       7.19      28.55      34.51
C       6.39      28.40      33.35
C       6.66      27.39      32.44
C       7.72      26.51      32.65
C       8.52      26.63      33.81
C      15.19      23.77      37.78
C      14.44      23.59      36.83
O      19.07      29.47      46.28
