27

H       5.00       8.02       8.06
H       5.50       6.22       6.45
H       9.05       5.21       8.68
H       8.52       7.05      10.31
O       7.16       8.92      11.24
O       5.36       9.46       9.98
O       8.59       3.66       6.78
H       8.23       2.03       5.32
C       6.37       8.76      10.22
C       6.74       7.65       9.27
C       5.90       7.41       8.17
C       6.20       6.40       7.27
C       7.35       5.61       7.44
C       8.17       5.84       8.55
C       7.87       6.85       9.46
C       7.74       4.51       6.51
H       6.51       5.34       5.08
C       7.60       2.24       4.47
C       6.97       3.49       4.34
C       6.20       3.72       3.19
C       7.38       1.28       3.49
C       6.03       2.71       2.26
H       7.84       0.30       3.55
H       5.73       4.69       3.01
N       6.59       1.49       2.41
N       7.04       4.50       5.30
H       5.43       2.84       1.36
