27

O       6.86      11.47      14.21
O       8.65      10.21      14.81
O       9.07      13.93      20.75
H       6.42      13.37      15.64
H       6.58      14.76      17.66
H       9.71      12.19      19.16
H       9.52      10.80      17.06
H       6.57      17.96      19.68
H       6.52      19.67      21.41
H       8.73      17.33      24.03
H       8.86      15.45      22.37
H       7.33      15.91      18.98
C       7.84      11.14      14.99
C       7.95      11.99      16.23
C       7.13      13.11      16.42
C       7.24      13.90      17.56
C       8.18      13.57      18.56
C       9.00      12.44      18.37
C       8.89      11.67      17.22
C       8.38      14.35      19.82
C       7.74      16.54      20.87
C       7.07      17.75      20.63
C       7.04      18.73      21.60
C       8.27      17.42      23.05
C       8.34      16.37      22.13
N       7.65      18.59      22.80
N       7.75      15.60      19.85
