27

C       3.31      11.51      12.60
C       2.94      12.62      13.55
C       3.78      12.86      14.65
C       3.48      13.87      15.56
C       2.33      14.66      15.39
C       1.50      14.43      14.27
C       1.81      13.42      13.36
C       1.94      15.76      16.32
C       2.30      18.99      19.33
C       2.08      18.03      18.35
C       2.71      16.78      18.48
C       3.48      16.55      19.64
C       3.65      17.56      20.56
O       2.52      11.35      11.59
O       4.32      10.81      12.85
O       1.09      16.60      16.05
H       4.68      12.25      14.76
H       4.18      14.05      16.37
H       0.63      15.06      14.14
H       1.16      13.22      12.52
H       1.84      19.97      19.27
H       1.45      18.24      17.50
H       3.95      15.58      19.81
H       4.25      17.43      21.46
H       3.17      14.93      17.74
N       3.09      18.78      20.41
N       2.64      15.77      17.53
