28

C       4.24       6.00       2.94
O       4.83       6.87       2.21
O       4.88       5.84       4.06
C       0.62       2.59       3.59
H       4.85       3.35       2.78
H       0.18       4.37       1.53
O       0.76       3.18       4.73
H       2.53       0.54       3.25
H       4.23       1.03       3.17
H       3.70      -0.55       1.36
H       2.38       0.51       0.76
O       0.22       1.37       3.78
H       2.61       7.12       0.95
H       4.10       1.06       0.65
C       1.49       2.95       2.47
C       2.84       2.58       2.56
C       3.82       3.58       2.55
C       3.43       4.92       2.36
H       0.98       6.51       0.58
C       2.15       5.18       1.82
C       1.19       4.15       1.82
C       3.25       1.12       2.65
C       1.75       6.57       1.39
C       3.36       0.50       1.27
C       1.18       7.37       2.56
H       0.24       6.89       2.92
H       0.95       8.40       2.22
H       1.90       7.43       3.39
