18

H       3.90      11.66       2.61
H       2.51      11.67       3.68
O       1.42      12.26       5.15
C       3.28      13.74       5.19
C       1.99      13.26       5.72
H       3.39      15.28       6.67
O       1.48      13.85       6.73
C       3.91      14.84       5.82
O       7.58      14.65       2.77
H       5.59      16.19       5.87
C       7.05      15.25       3.78
C       3.92      13.12       4.06
C       5.12      15.34       5.39
N       3.39      12.07       3.37
O       7.57      16.25       4.37
C       5.75      14.73       4.29
H       5.68      13.20       2.79
C       5.17      13.64       3.64
