18

O      18.05       3.50       8.38
C      18.04      -0.69       8.35
C      18.04       0.75      10.74
O      18.05       3.51      10.64
C      18.04      -0.66      10.81
C      18.04       0.70       8.30
H      18.05      -0.68      12.87
H      18.05      -2.27      12.10
H      18.05       1.23       7.35
H      18.04       1.34      11.65
H      18.05      -1.28       7.44
O      18.04      -3.51      10.65
C      18.04       1.41       9.51
O      18.05      -3.45       8.39
C      18.05       2.90       9.51
C      18.04      -2.86       9.53
C      18.04      -1.39       9.58
N      18.04      -1.25      12.04
