18

N      -0.01       7.01      17.76
O      -0.01      10.64      22.53
C      -0.01      10.69      18.33
O      -0.01       8.38      22.52
C      -0.01      10.74      19.71
C      -0.01       8.30      19.77
C      -0.01       8.23      18.35
H      -0.01      11.68      20.26
H      -0.02       6.17      18.33
H      -0.01       6.95      16.75
H      -0.01       7.39      20.35
H      -0.01      11.61      17.74
O      -0.00       8.37      15.52
O      -0.01      10.62      15.53
C      -0.01       9.51      21.92
C      -0.00       9.49      16.15
C      -0.01       9.47      17.62
C      -0.01       9.52      20.43
