18

C      14.79      13.74       5.19
H      14.16      11.64       2.63
H      15.56      11.66       3.69
H      14.69      15.27       6.68
O      16.59      13.86       6.73
C      16.08      13.27       5.72
C      14.17      14.83       5.83
O      10.50      14.65       2.77
C      11.02      15.23       3.77
C      14.16      13.12       4.06
H      12.48      16.19       5.87
H      12.40      13.20       2.79
O      10.50      16.24       4.36
C      12.32      14.72       4.29
C      12.95      15.34       5.39
N      14.70      12.08       3.36
C      12.91      13.64       3.64
O      16.65      12.27       5.14
