18

C      14.79       5.19      13.77
O      16.63       5.19      12.28
H      14.67       6.67      15.31
C      16.07       5.74      13.30
C      14.16       4.06      13.15
O      10.49       4.36      16.26
H      12.39       2.80      13.22
C      14.16       5.82      14.87
C      11.01       3.78      15.26
C      12.91       3.65      13.67
N      14.71       3.36      12.12
O      10.49       2.77      14.66
C      12.31       4.29      14.75
H      12.46       5.87      16.21
C      12.94       5.39      15.37
H      14.16       2.65      11.67
H      15.55       3.72      11.68
O      16.58       6.74      13.90
