32

H       8.11       7.83      11.30
H      11.88       8.14      13.21
H      10.16       6.62      14.80
H      11.50       9.54      11.15
H       9.86       9.71      10.54
H      11.43       8.40       6.24
H      11.92       5.98       6.48
H      11.77       4.91       8.74
N       8.77       6.98      13.18
H      11.17       6.26      10.71
N      11.79      11.01       8.71
N      12.81      12.76       9.60
N      10.13       8.22      11.95
H       9.79      10.49       8.60
H      10.66      12.69       9.41
H      14.81      11.98       9.51
H      13.51       9.77       8.35
H      10.65      10.39       7.06
C       8.88       7.68      12.05
C      10.85       7.84      13.07
C       9.99       7.08      13.83
C      10.63       8.97      10.81
C      10.96       8.11       9.61
C      11.02       8.70       8.33
C      11.37       7.93       7.22
C      11.65       6.56       7.36
C      11.57       5.97       8.62
C      11.24       6.74       9.74
C      10.73      10.17       8.13
C      11.63      12.25       9.24
C      13.77      11.80       9.29
C      13.15      10.71       8.73
