27

C       9.34      11.54      12.87
C      10.58      12.19      12.83
C      11.41      12.17      13.94
C      11.00      11.49      15.09
C       9.78      10.81      15.14
C       8.95      10.84      14.02
C       8.43      11.56      11.69
C      11.95      10.64      17.16
C      12.15      11.09      18.46
C      12.43      10.17      19.47
C      12.53       8.81      19.17
C      12.31       8.37      17.85
C      12.00       9.28      16.84
C      12.89       7.86      20.26
O       7.22      11.15      11.87
O       8.84      11.96      10.55
O      12.89       8.24      21.47
O      13.22       6.64      19.96
O      11.83      11.63      16.20
H      10.87      12.72      11.93
H      12.37      12.69      13.94
H       9.49      10.29      16.05
H       8.00      10.31      14.02
H      12.08      12.16      18.67
H      12.58      10.50      20.49
H      12.40       7.30      17.64
H      11.81       8.96      15.82
