27

C       9.34      14.39      22.56
C      10.58      13.74      22.59
C      11.41      13.76      21.48
C      11.00      14.44      20.33
C       9.78      15.12      20.28
C       8.95      15.10      21.40
C       8.43      14.37      23.73
C      11.95      15.29      18.26
C      12.15      14.84      16.96
C      12.43      15.76      15.96
C      12.53      17.12      16.25
C      12.31      17.57      17.57
C      12.00      16.65      18.58
O       7.22      14.78      23.55
O       8.84      13.97      24.87
C      12.89      18.07      15.16
O      12.89      17.69      13.96
O      11.83      14.30      19.22
O      13.22      19.29      15.46
H      10.87      13.21      23.49
H      12.37      13.24      21.48
H       9.49      15.64      19.37
H       8.00      15.63      21.40
H      12.08      13.77      16.75
H      12.58      15.43      14.93
H      12.40      18.63      17.79
H      11.81      16.97      19.60
