32

N       4.73      10.31      10.43
N       3.37       9.07      11.66
N       1.71       6.28      14.91
N       0.69       4.53      14.01
C       4.62       9.61      11.56
C       2.65       9.45      10.54
C       3.51      10.21       9.78
C       2.88       8.31      12.81
C       2.54       9.18      14.01
C       2.48       8.58      15.28
C       2.13       9.36      16.39
C       1.85      10.72      16.26
C       1.93      11.32      15.00
C       2.26      10.55      13.88
C       2.77       7.12      15.48
C       1.87       5.04      14.37
C      -0.27       5.49      14.32
C       0.35       6.57      14.89
H       5.39       9.45      12.31
H       1.62       9.15      10.40
H       3.34      10.67       8.81
H       2.00       7.74      12.47
H       3.64       7.58      13.07
H       2.07       8.88      17.37
H       1.58      11.31      17.13
H       1.73      12.38      14.87
H       2.33      11.02      12.90
H       2.85       6.90      16.56
H       3.71       6.80      15.01
H       2.84       4.60      14.20
H      -1.31       5.31      14.10
H      -0.01       7.52      15.27
