27

C       2.59      14.39      12.87
C       3.83      13.74      12.83
C       4.66      13.76      13.94
C       4.25      14.44      15.09
C       3.03      15.12      15.14
C       2.20      15.10      14.02
C       1.68      14.37      11.69
C       5.20      15.29      17.16
C       5.40      14.84      18.46
C       5.68      15.76      19.47
C       5.78      17.12      19.17
C       5.56      17.57      17.85
C       5.25      16.65      16.84
C       6.14      18.07      20.26
O       0.47      14.78      11.87
O       2.09      13.97      10.55
O       6.14      17.69      21.47
H       4.12      13.21      11.93
O       5.08      14.30      16.20
H       5.62      13.24      13.94
H       1.25      15.63      14.02
H       2.74      15.64      16.05
H       5.33      13.77      18.67
H       5.65      18.63      17.64
H       5.06      16.97      15.82
H       5.83      15.43      20.49
O       6.47      19.29      19.96
