27

H       9.38       4.56       0.12
H       7.88       4.60       2.13
H      10.76       7.00       4.24
H      12.25       6.98       2.22
H       8.17       5.13       6.87
H       7.67       6.79       8.69
H       7.85       9.98       5.83
H       8.44       8.33       4.01
O      13.03       6.14       0.06
O      11.41       5.33      -1.26
O       7.36       9.04       9.66
O       7.03      10.64       8.15
O       8.42       5.66       4.39
C      10.91       5.75       1.06
C       9.67       5.09       1.02
C       8.84       5.11       2.14
C       9.25       5.80       3.29
C      10.47       6.48       3.33
C      11.30       6.45       2.21
C      11.82       5.72      -0.12
C       8.30       6.65       5.35
C       8.10       6.19       6.66
C       7.82       7.11       7.66
C       7.72       8.48       7.36
C       7.94       8.92       6.05
C       8.25       8.01       5.04
C       7.36       9.43       8.45
