32

H       3.34      15.26       2.99
H       2.00      18.19      -0.66
H       3.64      18.35      -1.26
H       2.07      17.05      -5.56
H       1.58      14.62      -5.32
H       1.73      13.55      -3.07
H       2.33      14.91      -1.10
H       2.85      19.03      -4.75
H       3.71      19.13      -3.20
H       2.84      21.33      -2.39
H      -1.31      20.62      -2.29
H      -0.01      18.42      -3.46
N       4.73      15.62       1.37
N       3.37      16.86       0.15
N       1.71      19.66      -3.10
N       0.69      21.40      -2.21
C       4.62      16.32       0.24
C       2.65      16.48       1.27
C       3.51      15.72       2.03
C       2.88      17.62      -1.00
C       2.54      16.75      -2.20
C       2.48      17.35      -3.48
C       2.13      16.57      -4.59
C       1.85      15.21      -4.45
C       1.93      14.62      -3.19
C       2.26      15.39      -2.07
C       2.77      18.81      -3.68
C       1.87      20.89      -2.56
C      -0.27      20.44      -2.52
C       0.35      19.36      -3.08
H       5.39      16.48      -0.51
H       1.62      16.78       1.40
