32

C      11.37      16.32      11.56
C       9.40      16.48      10.54
C      10.26      15.72       9.78
C       9.63      17.62      12.81
C       9.29      16.75      14.01
C       9.24      17.35      15.28
C       8.88      16.57      16.39
C       8.60      15.21      16.26
C       8.68      14.62      15.00
C       9.01      15.39      13.88
N      11.48      15.62      10.43
N      10.12      16.86      11.66
C       9.52      18.81      15.48
N       8.46      19.66      14.91
C       8.62      20.89      14.37
C       7.10      19.36      14.89
N       7.44      21.40      14.01
C       6.48      20.44      14.32
H      12.14      16.48      12.31
H       8.37      16.78      10.40
H      10.09      15.26       8.81
H       8.75      18.19      12.47
H      10.39      18.35      13.07
H       8.82      17.05      17.37
H       8.33      14.62      17.13
H       8.48      13.55      14.87
H       9.08      14.91      12.90
H       9.60      19.03      16.56
H      10.46      19.13      15.01
H       9.59      21.33      14.20
H       5.44      20.62      14.10
H       6.74      18.42      15.27
