32

C      10.26      10.21       2.03
C       9.63       8.31      -1.00
C       9.29       9.18      -2.20
C       9.24       8.58      -3.48
C       8.88       9.36      -4.59
C       8.60      10.72      -4.45
C       8.68      11.32      -3.19
C       9.01      10.55      -2.07
C       9.52       7.12      -3.68
C       8.62       5.04      -2.56
C       6.48       5.49      -2.52
C       7.10       6.57      -3.08
N      11.48      10.31       1.37
N      10.12       9.07       0.15
N       8.46       6.28      -3.10
N       7.44       4.53      -2.21
H      12.14       9.45      -0.51
H       8.37       9.15       1.40
H      10.09      10.67       2.99
H       8.75       7.74      -0.66
H      10.39       7.58      -1.26
H       8.82       8.88      -5.56
H       8.33      11.31      -5.32
H       8.48      12.38      -3.07
H       9.08      11.02      -1.10
H       9.60       6.90      -4.75
H      10.46       6.80      -3.20
H       9.59       4.60      -2.39
H       5.44       5.31      -2.29
H       6.74       7.52      -3.46
C      11.37       9.61       0.24
C       9.40       9.45       1.27
