31

O      10.27       6.27      22.04
O       8.77       4.66      22.44
Gd      11.31       7.68      23.43
Gd       4.67       7.67      24.97
Gd       7.98       5.94      24.22
O       2.99       7.71      26.61
O       3.60       9.65      25.70
C       8.40       8.61      22.39
O       5.71       6.25      26.35
O       7.17       4.60      25.95
C       2.48       9.72      27.82
C       3.03       9.00      26.65
C       4.76       5.37      21.37
O       7.61       7.64      22.65
O       9.44       8.85      23.12
C       4.88       6.16      22.58
O       5.72       5.82      23.54
O       4.12       7.19      22.79
C       6.27       5.14      26.69
O       8.41       7.64      25.75
O       6.55       8.81      25.27
O      10.24       5.82      24.86
O      11.85       7.19      25.60
C      13.50       9.72      20.56
C      12.94       9.00      21.73
C       7.60       8.59      26.01
C       9.68       5.17      21.70
C      11.20       5.38      27.03
C      11.08       6.16      25.82
O      13.00       7.71      21.78
O      12.35       9.66      22.66
