41

H      22.44       6.00       3.87
O      25.05       0.62       1.13
O      23.67       0.02       2.16
O      26.04      11.46       1.93
O      24.83      10.94       0.26
O      20.92       8.08       9.77
O      21.62       6.11      10.54
C      24.03       2.05       2.43
C      23.31       3.06       1.78
C      23.10       4.27       2.37
C      23.52       4.55       3.65
C      24.12       3.51       4.31
C      24.36       2.25       3.72
C      23.35       5.91       4.22
C      25.25      10.73       1.35
C      24.75       9.47       2.13
C      23.50       9.41       2.68
C      23.07       8.26       3.35
C      23.85       7.11       3.49
C      25.12       7.16       2.90
C      25.56       8.32       2.22
C      21.48       6.98       9.64
C      21.97       6.69       8.26
C      23.20       7.10       7.84
C      23.68       6.81       6.57
Cl      22.77       2.73       0.16
Cl      22.24       5.43       1.44
C      21.22       5.98       7.39
Cl      24.71       3.72       5.96
C      24.31       1.02       1.82
C      22.92       6.12       5.65
Cl      25.15       1.02       4.62
C      21.69       5.67       6.07
Cl      21.45       8.29       3.98
Cl      22.50      10.79       2.59
Cl      27.12       8.37       1.52
Cl      26.21       5.86       3.01
Cl      25.30       7.28       6.19
Cl      24.19       7.98       8.95
Cl      19.64       5.42       7.86
Cl      20.62       4.80       5.00
