41

H      13.13      13.17      15.54
C       9.17      11.58      14.10
C      10.18      12.29      13.45
C      11.39      12.51      14.04
C      11.67      12.08      15.32
C      10.63      11.48      15.98
C       9.37      11.25      15.39
C      13.04      12.26      15.89
C      17.86      10.35      13.02
O       7.75      10.55      12.80
C      16.53      12.11      14.35
C      15.38      12.53      15.02
C      14.23      11.76      15.16
C      14.28      10.49      14.57
C      15.44      10.05      13.89
C      16.59      10.86      13.80
O       7.14      11.93      13.83
C      14.23      12.41      19.51
C      13.93      11.93      18.24
C      13.24      12.69      17.32
C      12.79      13.92      17.74
C      13.82      13.63      19.93
C       8.14      11.30      13.49
C      14.10      14.13      21.31
C      13.10      14.39      19.06
O      18.58       9.57      13.60
O      18.07      10.78      11.93
O      15.21      14.69      21.44
O      13.23      13.99      22.20
Cl       9.85      12.84      11.83
Cl      12.56      13.36      13.11
Cl      10.84      10.90      17.63
Cl       8.14      10.46      16.29
Cl      17.92      13.11      14.26
Cl      15.41      14.15      15.65
Cl      12.98       9.40      14.68
Cl      15.49       8.48      13.19
Cl      15.10      11.42      20.62
Cl      14.40      10.31      17.86
Cl      11.92      14.98      16.67
Cl      12.54      15.97      19.53
