72

Ce       2.79       3.84      19.23
Ce       2.37       0.01      14.55
Ce       2.68       3.81       3.29
Ce       3.10       7.64       7.97
H       2.13       0.96      19.90
H       1.37       1.74      16.71
H       0.22       0.49      19.70
H      -0.24       7.48      17.57
H       3.03       4.78      13.88
H       3.78       5.57      17.08
H       4.94       4.32      14.08
H       5.39       3.66      16.22
H       3.34       6.70       2.62
H       4.09       5.91       5.81
H       5.25       7.16       2.82
H       5.71       0.17       4.95
H       2.44       2.87       8.64
H       1.69       2.08       5.45
H       0.53       3.33       8.44
H       0.07       3.99       6.31
C      -0.25       2.34      18.92
C       0.58       1.07      18.99
C       0.62       0.27      17.69
C       1.70       6.84      17.77
C       3.55       3.25       0.03
C       5.40       6.17      14.86
C       4.57       4.89      14.79
C       4.53       4.10      16.09
C       3.45       3.02      16.02
C       2.23       7.07      11.23
C       5.71       5.31       3.60
C       4.89       6.59       3.53
C       4.84       7.38       4.83
C       3.76       0.81       4.76
C       1.92       4.41      22.49
C       0.07       1.49       7.66
C       0.90       2.76       7.73
C       0.94       3.55       6.43
C       2.02       4.64       6.50
C       3.23       0.58      11.29
O       4.64       2.21      18.77
O       0.35       3.42      19.04
O       1.90       1.42      19.33
O       0.88       1.07      16.55
O       1.61       6.02      18.69
O       2.64       6.87      16.88
O       3.43       2.83      21.48
O       3.77       2.82       1.17
O       0.52       6.04      15.02
O       4.80       7.25      14.75
O       3.26       5.25      14.45
O       4.27       4.90      17.24
O       3.54       2.19      15.10
O       2.51       3.05      16.91
O       1.72       6.65      12.31
O       2.01       6.64      10.10
O       0.83       5.44       3.75
O       5.11       4.23       3.48
O       3.57       6.23       3.19
O       4.59       6.58       5.98
O       3.85       1.63       3.83
O       2.82       0.78       5.65
O       2.04       4.83       1.04
O       1.70       4.84      21.36
O       4.95       1.61       7.51
O       0.67       0.40       7.78
O       2.21       2.40       8.07
O       1.20       2.75       5.29
O       1.93       5.46       7.43
O       2.96       4.61       5.61
O       3.75       1.00      10.22
O       3.45       1.01      12.43
