15

H      15.18      15.67      20.72
C      15.03      11.84      20.15
C      16.19      12.40      20.81
H      17.14      14.26      21.38
N      13.83       9.72      19.51
H      17.06      11.78      21.03
C      15.18      14.60      20.57
N      15.56       8.51      19.01
C      14.96      10.46      19.73
C      13.98      12.72      19.85
C      16.25      13.80      20.94
N      14.24       8.51      19.07
N      14.02      14.05      20.07
N      16.04       9.70      19.42
H      13.08      12.34      19.37
