15

C      14.47      14.66      16.38
N      16.02      19.12      18.52
C      15.79      16.11      17.78
N      13.82      19.23      18.41
C      14.90      18.44      18.17
N      15.61      20.33      18.97
H      13.07      17.63      16.39
C      15.58      14.86      17.19
H      16.27      14.04      17.38
C      13.77      16.84      16.66
C      14.82      17.12      17.57
H      14.30      13.70      15.89
N      14.30      20.39      18.90
H      16.67      16.29      18.40
N      13.61      15.66      16.03
