15

N      10.18      10.52      21.51
N       8.92      10.81      23.31
H      12.44      10.57      26.92
H      10.35      10.31      25.53
C      11.30      10.60      25.08
N      13.71      11.36      23.90
H      14.58      11.21      25.77
C      13.64      11.10      25.22
C      11.36      10.84      23.70
H      12.68      11.50      22.11
N       8.87      10.50      21.16
N       8.13      10.67      22.23
C      12.45      10.74      25.84
C      12.60      11.24      23.16
C      10.18      10.72      22.85
