15

C      11.75       6.51       5.05
N      11.90      12.26       7.54
C      12.43       8.71       5.30
N      10.60      12.19       7.62
H       9.98       5.89       6.08
C      11.40       8.98       6.23
C      11.32      10.30       6.82
H       9.56       8.14       7.08
C      10.65       6.71       5.88
C      10.43       7.96       6.46
N      12.60       7.53       4.67
H      13.12       9.51       5.02
H      11.94       5.55       4.58
N      10.19      10.97       7.18
N      12.39      11.10       7.06
