36

C      17.41      10.76      17.55
O      19.59      11.38       9.27
O      18.31      11.50       7.39
O      14.06       8.54       7.96
O      12.88       8.95       9.79
O      19.25      11.65      19.40
O      18.18      10.58      21.10
O      13.88       8.07      20.06
O      12.97       8.54      18.08
N      16.49      10.80      13.04
N      17.35      11.79      13.48
N      17.38      11.72      14.79
C      17.29      10.42      18.91
C      18.32      10.91      19.87
C      18.49      11.25       8.63
C      17.33      10.78       9.45
C      16.21      10.16       8.89
C      15.16       9.74       9.72
C      13.98       9.05       9.13
C      15.21       9.98      11.11
C      16.35      10.57      11.65
C      17.42      10.96      10.83
C      15.99      10.11      14.10
C      16.56      10.71      15.22
C      16.42      10.37      16.63
C      15.31       9.66      17.10
H      16.14       9.98       7.81
H      14.36       9.69      11.73
H      18.30      11.41      11.27
H      15.33       9.26      13.99
H      14.49       9.39      16.43
H      16.09       9.41      20.41
H      18.27      11.34      17.21
C      15.19       9.31      18.45
C      13.97       8.61      18.89
C      16.19       9.67      19.36
