36

O       7.88       1.01       7.40
O       8.22      -0.13       9.27
O      10.59       5.22       6.81
O      11.31       6.31       8.67
O       8.88      -0.74      17.57
O       8.55       0.15      19.59
O      11.17       4.48      20.58
O      11.64       5.75      18.75
N      11.39       4.11      12.99
N      11.51       4.03      14.29
N      10.57       3.12      14.72
C       8.34       0.96       8.60
C       9.03       2.13       9.19
C       9.44       3.19       8.37
C      10.16       4.26       8.93
C      10.71       5.34       8.08
C      10.44       4.27      10.30
C      10.04       3.21      11.13
C       9.34       2.14      10.56
C      10.39       3.27      12.55
C       9.86       2.63      13.66
C      10.42       2.87      16.11
C       9.85       1.68      16.56
C       9.66       1.49      17.94
C       9.00       0.25      18.40
C      10.09       2.46      18.86
C      10.70       3.63      18.39
C      11.20       4.69      19.32
C      10.85       3.84      17.02
H       9.22       3.17       7.31
H      11.01       5.10      10.73
H       9.05       1.27      11.16
H       9.04       1.93      13.78
H       9.54       0.89      15.88
H       9.94       2.29      19.93
H      11.30       4.76      16.65
