23

C      12.96      -0.95      11.20
C      12.80      -0.60      12.65
C      12.08      -1.45      13.49
C      11.84      -1.10      14.82
C      12.34       0.12      15.31
C      13.08       0.96      14.48
C      13.31       0.60      13.15
C      10.33      -4.16      16.47
C      11.12      -3.39      15.62
C      11.04      -1.98      15.69
C      10.14      -1.44      16.63
C       9.37      -2.28      17.42
N       9.46      -3.63      17.35
O      13.36      -0.04      10.40
O      12.63      -2.14      10.86
H      11.69      -2.39      13.09
H      12.16       0.40      16.35
H      13.47       1.89      14.86
H      13.87       1.25      12.48
H      10.37      -5.25      16.45
H      11.81      -3.87      14.93
H      10.00      -0.36      16.70
H       8.64      -1.88      18.12
