23

H       4.57       7.16      14.76
H       4.58       4.01      11.81
H       5.88       2.57      13.38
H       6.40       3.41      15.68
H       1.40       9.08      12.26
H       2.58       7.55      13.83
H       4.56       5.83      10.40
N       2.28       8.32      10.55
H       3.25       7.40       8.98
O       6.28       5.02      17.60
O       5.62       7.08      16.94
C       5.85       5.84      16.74
C       5.51       5.33      15.36
C       4.81       6.14      14.45
C       4.47       5.68      13.17
C       4.86       4.39      12.79
C       5.57       3.57      13.68
C       5.87       4.04      14.96
C       2.12       8.35      11.89
C       2.79       7.50      12.76
C       3.71       6.56      12.26
C       3.87       6.53      10.87
C       3.15       7.41      10.07
