23

C       7.88       1.70      16.85
C       8.09       1.29      15.41
C       8.81       2.12      14.55
C       9.05       1.74      13.22
C       8.57       0.50      12.77
C       7.84      -0.33      13.63
C       7.60       0.06      14.94
C      10.41       4.81      11.47
C       9.64       4.02      12.32
C       9.81       2.63      12.31
C      10.75       2.11      11.41
C      11.48       2.97      10.59
N      11.32       4.31      10.61
H       9.22       3.05      14.93
H       8.75       0.20      11.74
H       7.45      -1.28      13.27
H       7.03      -0.56      15.63
H      10.31       5.90      11.46
H       8.90       4.48      12.97
H      10.95       1.04      11.36
H      12.23       2.58       9.91
O       7.35       0.84      17.63
O       8.27       2.86      17.19
