23

H      11.73      12.99       5.34
H      12.59      10.37       2.02
H      13.92       8.91       3.53
H      14.09       9.47       5.97
H      10.36      15.88       2.05
H      11.82      14.55       3.57
H      10.40      11.02       1.53
H       8.99      12.48       0.13
N       9.62      14.26       1.01
C      13.03      11.60       7.26
C      12.92      11.26       5.79
C      12.20      12.09       4.93
C      12.05      11.78       3.57
C      12.67      10.62       3.08
C      13.42       9.80       3.93
C      13.53      10.11       5.28
C      10.41      14.80       1.97
C      11.21      14.05       2.82
C      11.25      12.65       2.68
O      13.42      10.69       8.06
O      12.69      12.78       7.60
C      10.46      12.10       1.66
C       9.66      12.91       0.87
