23

H      11.62       4.32       5.59
C      12.74       2.55       6.08
C      12.02       3.38       5.21
C      11.78       3.00       3.88
C      12.96       2.96       7.51
H      13.80       0.70       6.29
C      13.24       1.33       5.61
C      12.99       0.93       4.29
C      12.26       1.76       3.43
C      11.03       3.89       2.97
H      12.08       1.46       2.40
C      11.19       5.28       2.98
C      10.09       3.37       2.07
H      11.93       5.74       3.64
C      10.43       6.07       2.13
C       9.36       4.23       1.26
H       8.60       3.84       0.58
H      13.38      -0.02       3.93
H      10.53       7.16       2.12
H       9.88       2.30       2.03
N       9.51       5.57       1.28
O      13.49       2.10       8.29
O      12.57       4.12       7.86
