112

Cu       0.46      -0.10      20.32
Cu       6.00      -0.82      19.85
Cu       2.74       4.85       5.58
Cu       3.46       0.85       6.04
Cu      -1.21       4.38      18.53
Cu       4.33       3.64      18.99
Cu      -2.02       4.86       7.37
Cu      -1.29       0.85       6.89
P       1.49       2.31      18.80
P      -2.69       2.20      19.94
P       4.64       6.66       7.08
P       6.01       2.69       5.96
P       3.16      -2.16      20.05
P      -1.03      -2.27      18.91
P      -0.13       6.66       5.84
P       1.23       2.70       6.99
H      -0.85       0.53      18.24
H       0.33       4.79      21.29
H       2.46      -3.20      22.17
H      -2.11       3.13      22.13
H      -0.66       2.74      21.13
H       0.60       4.06      16.28
H       0.53       4.08      13.75
H      -0.53       2.81      11.86
H      -0.77       2.96       9.36
H       3.79       3.85       7.65
H      -2.19       6.44       4.64
H      -0.88       5.64       3.72
H       6.69       3.56       3.77
H       5.80       4.78       4.77
H      -2.94       6.46       9.61
H      -2.87       6.43      12.14
H      -3.68       5.02      14.06
H      -3.43       4.88      16.55
H      -2.52       4.99      20.61
H       2.01       0.31      17.58
H       0.80       1.26      16.68
H      -0.46      -1.33      16.72
H       1.00      -1.73      17.71
H       2.27      -0.39      22.57
H       2.21      -0.32      25.10
H       4.23       2.75       1.11
H       4.00       2.94       3.61
H      -0.98       3.84       5.29
H       2.59       6.45       8.32
H       3.91       5.65       9.21
H       1.90       3.57       9.18
H       1.02       4.79       8.18
H       1.82       6.43       3.31
H       1.89       6.37       0.79
H      -2.00       0.61      24.80
H      -1.76       0.42      22.31
C       1.09       0.91      17.67
C      -1.68       3.15      21.12
C      -0.31       4.25      15.72
C      -0.37       4.27      14.33
C      -1.59       4.56      13.69
C      -1.08       3.64      11.41
C      -1.20       3.72      10.03
C       3.46       5.80       8.22
C       6.55       3.97       4.78
C      -2.44       5.67      10.17
C      -2.39       5.64      11.57
C      -1.69       4.62      12.21
C      -2.71       4.81      14.50
C      -2.58       4.73      15.88
C      -0.58       5.39      21.18
C      -0.02      -1.31      17.73
C       1.36      -0.19      23.13
C       1.31      -0.15      24.52
C       0.10       0.16      25.16
C       3.69       3.59       1.55
C       3.57       3.68       2.93
C      -1.31       5.80       4.72
C       1.77       3.99       8.17
C       2.33       5.64       2.76
C       2.37       5.59       1.37
C       3.08       4.55       0.73
C      -1.03       0.38      24.36
C      -0.91       0.28      22.97
N       0.06       0.05      18.29
N      -1.40       4.47      16.49
N       3.02       4.54       7.61
N      -1.86       4.72       9.42
N      -1.61       4.52      20.56
N       0.26       0.02      22.37
N      -1.74       4.53       5.34
N       2.91       4.70       3.53
O       0.77       3.59      18.44
O       2.79      -2.69      18.64
O       4.69      -2.01      20.34
O      -4.15       2.63      20.21
O      -2.48       0.70      20.28
O      -2.14       2.56      18.55
O      -3.46       6.43       7.47
O      -0.50       6.15       7.26
O       2.82      -0.80       5.56
O       6.92       1.47       5.68
O       4.53       2.37       5.62
O       6.17       3.32       7.35
O       2.43      -0.88      20.42
O       1.15       1.77      20.21
O       3.02       2.45      18.50
O      -2.50      -1.86      18.64
O      -4.16       5.17      18.57
O      -0.49      -1.90      20.30
O       1.32       6.44       5.45
O       4.27       6.12       5.68
O       7.58      -0.80       7.35
O       2.14       1.48       7.25
O      -0.25       2.38       7.33
O       1.37       3.35       5.60
