61

H       4.87       1.15      14.62
H       1.80       7.71       7.40
H       1.68       2.80       7.38
H       1.02       2.19       9.44
H       1.69       0.83      11.40
H       4.76       3.68      12.34
H       4.15       5.01      10.35
H       1.10       6.14      11.08
H       1.87       7.60      12.93
H       5.07       9.05      10.46
H       4.23       7.65       8.56
H       2.57       8.25       5.38
H       1.98       9.66       3.42
H      -1.32       7.07       2.53
H      -0.71       5.62       4.45
H       2.42       4.78       3.72
H       1.91       3.39       1.73
H      -0.98       1.17       4.00
H      -0.41       2.50       6.03
C       2.11       4.54       8.58
C       2.17       5.95       8.55
C       1.79       6.62       7.38
C       1.37       5.98       6.21
C       1.34       4.56       6.22
C       1.68       3.89       7.40
C       2.53       3.72       9.74
C       1.87       2.51      10.05
C       2.23       1.74      11.15
C       3.27       2.17      11.99
C       3.94       3.36      11.70
C       3.59       4.12      10.58
C       3.63       1.36      13.17
C       2.62       6.80       9.69
C       1.97       6.78      10.94
C       2.40       7.59      11.98
C       3.52       8.42      11.81
C       4.18       8.44      10.57
C       3.72       7.66       9.51
C       4.07       9.24      12.92
C       0.98       6.81       5.05
C       1.71       7.99       4.77
C       1.39       8.78       3.67
C       0.31       8.44       2.84
C      -0.45       7.30       3.14
C      -0.11       6.50       4.22
C      -0.03       9.33       1.69
C       1.03       3.74       5.02
C       1.68       3.99       3.79
C       1.40       3.22       2.67
C       0.41       2.21       2.74
C      -0.22       1.94       3.96
C       0.11       2.69       5.09
C       0.02       1.52       1.48
O       3.00       0.33      13.49
O       4.67       1.81      13.86
O       5.21       9.78      12.76
O       3.43       9.36      14.03
O      -1.25       9.42       1.34
O       0.94       9.96       1.15
O      -1.20       1.18       1.34
O       0.93       1.36       0.58
