144

Al       5.97      10.28       4.61
Al       0.00       2.87      12.11
Al       0.01      12.02       2.89
Al       5.96       4.56      10.35
Al       2.99      12.02       4.61
Al       8.94       4.60      12.08
Al       8.96      10.28       2.91
Al       2.98       2.83      10.37
H       0.93       9.36       6.50
H       6.84       1.79      13.84
H       6.94      12.85       0.93
H       0.90       5.57       8.56
H       9.90      13.96       5.51
H       3.89       6.50      13.02
H       3.92       8.54       1.87
H       9.84       1.03       9.36
H       2.02       9.38       1.03
H       7.98       1.96       8.45
H       8.03      13.02       6.42
H       2.04       5.61      13.88
H       5.06      13.74       1.83
H      10.96       6.47       9.45
H      10.97       8.48       5.63
H       4.98       0.88      12.94
H       4.60      11.38       2.84
H      10.26       3.38      10.38
H      10.35      11.37       4.71
H       4.30       4.05      12.08
H       1.35      10.27       4.06
H       7.30       2.85      11.57
H       7.54      12.09       3.90
H       1.34       4.57      10.90
H       4.64       7.41       7.48
H      10.60       0.02       0.02
H       1.67       0.04       7.49
H       7.62       7.42       0.01
H      10.24       7.42       0.04
H       4.30      14.86       7.48
H       1.32      14.84       0.01
H       7.25       7.47       7.52
C       3.55       9.53       6.09
C       2.85       8.47       6.87
C       1.45       8.51       6.93
C       9.47       2.10      13.55
C       8.78       0.99      14.28
C       7.38       0.96      14.28
C       9.54      12.75       1.39
C       8.83      13.78       0.58
C       7.44      13.71       0.50
C       3.52       5.32       8.89
C       2.83       6.41       8.14
C       1.43       6.41       8.12
C       0.59      13.53       5.35
C      11.80      14.31       6.42
C      10.41      14.37       6.38
C       6.50       6.05      12.84
C       5.81       6.84      13.90
C       4.41       6.92      13.87
C       6.54       8.82       2.11
C       5.83       8.09       1.02
C       4.43       8.08       1.03
C       0.54       1.39       9.61
C      11.77       0.65       8.51
C      10.37       0.62       8.51
C      11.33       9.54       1.43
C       0.12       8.48       0.64
C       1.51       8.53       0.58
C       5.38       2.12       8.85
C       6.08       1.06       8.07
C       7.47       1.10       8.02
C       5.41      12.77       6.09
C       6.10      13.86       6.83
C       7.50      13.86       6.85
C      11.34       5.35      13.59
C       0.12       6.44      14.33
C       1.52       6.45      14.34
C       2.43      13.45       2.11
C       3.13      14.17       1.00
C       4.53      14.17       0.98
C       8.35       6.09       9.64
C       9.05       6.86       8.57
C      10.45       6.90       8.59
C       8.36       8.82       5.40
C       9.05       8.09       6.49
C      10.45       8.06       6.48
C       2.39       1.32      12.81
C       3.09       0.54      13.87
C       4.48       0.46      13.81
C       3.55       7.43       7.49
C       0.73       7.47       7.54
C       9.51      14.85      14.93
C       6.69      14.75      14.84
C       0.58       0.05       7.48
C       9.67       0.07       7.43
C       6.53       7.45      14.94
C       3.70       7.51      14.92
C      11.33       7.44       0.02
C       2.23       7.50      14.92
C       5.38       0.02       7.46
C       8.20       0.06       7.42
C       2.40      14.81      14.93
C       5.22      14.74      14.85
C       8.34       7.47       7.53
C      11.17       7.48       7.54
O       4.70       9.26       5.65
O       2.90      10.63       5.91
O      10.66       1.86      13.15
O       8.80       3.17      13.36
O      10.68      13.07       1.87
O       8.93      11.64       1.58
O       4.70       5.57       9.30
O       2.85       4.25       9.10
O       1.74      13.09       5.63
O      11.85      13.35       4.27
O       7.67       5.63      13.09
O       5.83       5.83      11.76
O       7.71       9.25       1.86
O       5.90       8.99       3.21
O       1.72       1.80       9.36
O      11.79       1.59      10.68
O      10.20       9.24       1.92
O       0.04      10.65       1.59
O       4.22       1.85       9.30
O       6.02       3.21       9.03
O       4.23      13.02       5.68
O       6.07      11.69       5.91
O      10.17       5.61      13.15
O       0.06       4.25      13.42
O       1.26      13.02       1.86
O       3.10      13.28       3.19
O       7.20       5.62       9.36
O       8.99       5.93      10.74
O       7.19       9.25       5.65
O       9.01       8.99       4.31
O       1.25       1.79      13.09
O       3.03       1.48      11.71
O       4.49      11.16       3.78
O      10.46       3.78      11.24
O      10.45      11.16       3.77
O       4.50       3.64      11.22
O       1.52      11.17       3.73
O       7.49       3.71      11.17
O       7.46      11.14       3.73
O       1.53       3.70      11.29
