20

H      17.62       8.51       7.57
H      15.21       5.58       4.90
C      15.02       7.23       6.05
C      17.80       6.89       6.39
C      15.76       8.10       6.89
C      17.07       5.98       5.60
C      17.14       7.92       7.03
C      13.56       7.39       5.80
C      15.69       6.18       5.44
C      19.30       6.86       6.56
C      17.74       4.80       4.99
C      15.15       9.26       7.60
O      14.15       9.86       7.10
O      18.91       4.48       5.36
O      19.72       6.50       7.69
O      17.13       4.10       4.12
O      13.21       7.60       4.60
O      15.68       9.68       8.67
O      20.02       7.29       5.64
O      12.74       7.29       6.74
