20

H       2.58       0.67       5.00
H       4.99       3.59       7.67
C       5.17       1.94       6.52
C       2.40       2.29       6.19
C       4.44       1.08       5.69
C       3.12       3.19       6.97
C       3.06       1.25       5.54
C       6.64       1.78       6.78
C       4.51       3.00       7.14
C       0.90       2.31       6.01
C       2.46       4.38       7.59
C       5.05      -0.08       4.97
O       6.05      -0.68       5.47
O       1.29       4.69       7.22
O       0.48       2.67       4.89
O       3.07       5.07       8.45
O       6.99       1.57       7.98
O       4.52      -0.50       3.90
O       0.18       1.88       6.94
O       7.45       1.89       5.83
