26

H       4.81       6.82      22.87
H       5.79       5.94      20.79
C       4.70       6.01      20.88
C       3.86       5.61      19.83
C       2.47       5.71      19.97
C       4.16       6.50      22.06
H       1.80       5.38      19.18
C       1.93       6.21      21.15
C       2.77       6.60      22.19
C       3.68       4.83      17.48
H       0.85       6.27      21.27
C       5.74       4.83      18.34
C       2.36       6.51      24.64
C       1.19       8.04      23.52
C       0.81       8.04      24.83
H       0.85       8.64      22.67
H       2.60       4.92      17.38
C       5.79       4.39      17.05
H       6.53       4.94      19.07
H       3.06       5.71      24.83
H       0.08       8.66      25.34
H       6.63       4.04      16.48
N       2.18       7.07      23.41
N       1.54       7.08      25.52
N       4.40       5.11      18.61
N       4.50       4.40      16.53
