26

C       9.23       2.05      24.69
C       6.74      -1.16      30.73
C       4.63      -1.59      31.16
C       4.68      -1.16      29.87
H       5.61       0.83      25.34
H       4.64      -0.05      27.43
H       8.62      -0.61      29.03
H       9.57       0.28      26.94
H       7.36      -0.29      23.38
H      10.34       2.66      22.87
H       9.57       2.64      25.54
H       7.82      -1.06      30.83
H       3.79      -1.94      31.73
H       3.90      -1.05      29.13
N       8.24       1.07      24.80
N       8.87       1.09      22.69
N       6.02      -0.88      29.60
N       5.92      -1.58      31.68
C       7.65       0.61      26.02
C       6.26       0.51      26.15
C       5.72       0.01      27.33
C       6.56      -0.38      28.38
C       7.95      -0.28      28.24
C       8.49       0.22      27.06
C       8.06       0.52      23.57
C       9.61       2.05      23.37
