22

O       6.83       1.12       3.75
O       5.63       1.87       5.51
O       4.69       7.52       1.35
O       6.77       8.13       2.01
H       5.42       2.67       1.98
H       5.11       4.94       0.97
H       6.95       7.99       4.22
H       7.80       7.75       6.52
H       7.99       5.48       7.57
H       7.27       3.48       6.31
C       6.24       3.42       3.80
C       5.73       3.56       2.52
C       5.58       4.83       1.95
C       6.00       5.98       2.61
C       6.59       5.87       3.92
C       7.01       7.00       4.67
C       7.50       6.86       5.96
C       7.61       5.58       6.55
C       7.21       4.46       5.85
C       6.69       4.57       4.53
C       6.23       2.06       4.43
C       5.77       7.30       1.93
