22

C       2.62       1.60      19.35
C       3.28       1.25      18.19
C       4.68       1.27      18.11
C       5.46       1.62      19.20
C       4.82       2.03      20.43
O       0.53       1.35      20.49
O       0.54       1.34      18.23
C       5.54       2.44      21.59
C       2.76       2.57      21.66
C       3.38       2.06      20.49
C       1.13       1.44      19.36
C       6.95       1.56      19.01
O       7.72       1.75      20.01
O       7.38       1.34      17.82
C       4.90       2.88      22.73
C       3.49       2.96      22.76
H       2.70       0.91      17.33
H       5.18       1.02      17.17
H       6.62       2.41      21.55
H       5.48       3.18      23.59
H       2.98       3.35      23.64
H       1.68       2.63      21.68
