22

O       5.70       4.58      11.66
O       5.75       4.74      13.91
O      12.92       4.27      12.13
O      12.59       4.67      14.32
C       7.81       4.41      12.78
C       8.48       4.77      13.94
C       9.88       4.74      14.03
C      10.66       4.40      12.93
C      10.02       3.99      11.71
C      10.74       3.58      10.55
C      10.11       3.14       9.41
C       8.70       3.05       9.37
C       7.96       3.44      10.47
C       8.58       3.95      11.65
C       6.32       4.57      12.78
C      12.15       4.46      13.13
H       7.89       5.10      14.80
H      10.37       5.00      14.96
H      11.82       3.61      10.59
H      10.70       2.84       8.55
H       8.19       2.67       8.49
H       6.89       3.38      10.45
