71

Cd       3.75       0.59       2.82
Cd       2.95       5.17       8.53
Cd       3.35       2.88       5.67
H       6.80       1.61       7.27
H       1.16       1.07       6.80
H       8.48       0.89       3.37
H       0.13       3.18      10.57
H       3.39       6.31       3.11
H       0.41      -1.13      11.09
H      -0.11       4.14       4.08
H       5.53       4.69       4.54
H      -1.78       4.87       7.98
H       6.57       2.57       0.77
H       3.30      -0.55       8.24
H       6.28       6.89       0.26
C       6.07       1.34       4.73
C       7.48       1.27       5.26
C       7.66       1.43       6.63
C      -0.97       1.31       7.17
C       0.16       1.10       6.37
C      -0.02       0.99       5.00
C       8.60       1.04       4.44
C       1.17       0.78       4.10
C       0.22       0.99      10.69
C       0.27       2.30      11.20
C       3.01       7.28       1.21
C       3.22       6.16       2.04
C       3.18       4.86       1.51
C       2.93       4.68       0.16
C       3.41       3.66       2.39
C       3.05       8.66       1.77
C       0.62       4.41       6.62
C      -0.79       4.48       6.09
C      -0.97       4.32       4.72
C       7.66       4.44       4.18
C       6.53       4.65       4.98
C       6.71       4.77       6.35
C      -1.91       4.72       6.91
C       5.52       4.97       7.24
C       6.47       4.76       0.65
C       6.43       3.45       0.15
C       3.68      -1.52      10.14
C       3.47      -0.41       9.31
C       3.51       0.89       9.84
C       3.77       1.08      11.19
C       3.28       2.10       8.96
C       3.64      -2.91       9.57
N      -0.88       1.52       8.58
N       0.04       0.71       9.31
N       7.57       4.23       2.77
N       6.66       5.04       2.04
O       5.89       1.16       3.48
O       5.18       1.57       5.61
O       1.02       0.32       2.96
O       2.34       1.07       4.61
O       3.28       2.53       1.81
O       3.73       3.88       3.60
O       2.93       9.65       0.98
O       3.19       8.81       3.03
O      -1.65       2.29       9.19
O       0.55      -0.29       8.76
O       0.81       4.59       7.87
O       1.51       4.18       5.74
O       5.67       5.43       8.39
O       4.35       4.68       6.74
O       3.41       3.22       9.54
O       2.96       1.87       7.75
O       3.76      -3.90      10.37
O       3.50      -3.05       8.31
O       8.34       3.46       2.16
O       6.15       6.04       2.59
