36

Tb       5.19       3.24       9.84
Tb       1.19       5.72       2.52
H       4.11       7.62      11.70
H       2.61       6.30       5.62
H       2.28       1.36       0.66
H       3.77       2.66       6.73
C       3.31       0.97       9.95
C       2.62       0.61      11.21
C       3.32       8.28      12.06
C       3.08       5.22       8.08
C       1.98       4.87       7.12
C       1.91       5.50       5.86
C       4.81       5.12      12.33
C       3.07       7.99       2.41
C       3.76       8.36       1.14
C       3.06       0.69       0.29
C       3.30       3.74       4.27
C       4.40       4.10       5.23
C       4.47       3.47       6.49
C       1.55       3.85       0.01
N       5.75       1.34      11.56
N       5.34       3.85       7.42
N       0.63       7.62       0.79
N       1.04       5.11       4.93
O       2.79       1.92       9.24
O       4.43       0.46       9.70
O       3.11       4.45       9.14
O       3.91       6.08       7.77
O       5.58       4.97      11.34
O       2.85       5.67       0.81
O       3.60       7.05       3.11
O       1.95       8.49       2.65
O       3.27       4.52       3.21
O       2.47       2.89       4.58
O       0.78       4.00       1.00
O       3.52       3.31      11.53
