900

H       8.37       5.69       7.81
H      12.05       4.30       6.29
H      13.72       2.92       5.31
H      14.08       5.63       2.09
H      12.43       7.02       3.08
H      11.26       7.59       5.36
H       9.68       5.18       5.64
H      16.13       4.62       1.98
H       8.89       8.38       4.62
H      17.44       1.52       3.03
H      31.85       0.34       1.67
H       0.71      16.68       2.84
H       5.69       8.89       7.30
H       4.14      12.41       5.94
H       3.15      14.07       4.54
H       6.40      13.75       1.86
H       7.38      12.07       3.25
H       6.42      11.26       6.52
H       6.73       9.69       4.11
H       3.05      16.13       3.54
H       4.11      17.44       0.45
H      49.79      18.07       1.40
H      49.43      21.04       0.78
H      49.41      23.43       0.56
H       0.99      32.62       1.37
H       1.11      29.74       1.02
H       0.85      27.35       1.14
H      46.85      33.83       0.20
H      50.24      34.26       2.68
H      48.48      35.93       2.57
H      44.40      41.49       7.82
H      46.92      38.83       5.65
H      47.70      36.86       4.58
H      44.25      36.81       2.15
H      43.47      38.79       3.22
H      45.41      40.87       5.35
H      42.73      39.80       5.41
H      18.82      50.48       1.69
H      20.74      48.73       0.24
H      23.13      48.51       0.21
H      33.22      49.25       2.97
H      41.64      42.17       4.72
H      34.48      46.17       1.88
H      41.99      44.94       7.87
H      38.58      46.44       6.18
H      36.95      47.85       5.18
H      36.50      45.09       2.01
H      38.11      43.67       3.02
H      39.24      43.12       5.36
H      40.93      45.46       5.53
H       3.92       0.72      15.60
H       4.61       3.06      15.05
H       2.92       6.39      12.65
H       4.31       7.37      10.98
H       5.62       3.16      12.99
H       7.02       4.15      11.34
H       7.59       6.43      10.18
H       5.18       6.72       8.61
H       1.52       4.10      16.36
H      49.46      46.92      15.73
H      47.13      48.61      13.67
H      47.34      44.32      12.90
H      46.26      43.55      10.92
H      45.14      47.93      12.69
H      44.07      47.16      10.70
H      44.41      45.55       8.70
H      43.94      42.99       9.94
H      47.07      50.37      15.37
H      48.43       1.08      17.00
H      50.48       2.77      17.74
H      48.73       1.32      19.66
H      48.51       1.30      22.05
H       2.48      49.79      17.00
H       0.39      48.01      17.39
H       1.85      49.43      19.97
H       1.64      49.41      22.35
H       0.63      48.91      24.53
H      49.10      50.06      24.01
H       2.44       0.99      31.54
H       2.10       1.10      28.67
H       2.22       0.85      26.27
H       0.33       2.75      30.77
H      49.24       4.05      32.14
H      46.16       2.95      33.41
H      46.91       0.61      32.86
H       3.75      50.24      33.19
H       1.27      46.85      32.75
H      48.90      49.31      28.72
H      49.02      49.06      26.33
H      48.39      49.72      31.48
H      50.41      47.99      31.08
H      39.80       6.48      41.65
H      42.17       5.80      40.56
H      47.84       6.26      35.86
H      46.43       7.26      37.50
H      45.09       3.08      35.43
H      43.67       4.09      37.05
H      43.12       6.43      38.16
H      45.46       6.62      39.85
H      44.94       8.95      40.92
H       5.80      41.64      41.09
H       6.44      39.24      42.05
H       3.65      48.47      34.85
H       3.23      44.25      35.73
H       4.30      43.47      37.71
H       5.66      47.70      35.77
H       6.74      46.92      37.75
H       6.43      45.41      39.79
H       6.48      42.73      38.72
H       8.90      44.40      40.41
H      11.01      43.94      41.91
H      16.68       3.92      50.04
H      18.07       2.48      48.72
H      21.04       1.86      48.36
H      23.43       1.64      48.34
H      18.47       0.39      46.94
H      25.61       0.64      47.83
H      32.62       2.45      50.31
H      29.74       2.10      50.43
H      27.35       2.22      50.18
H      33.84       1.27      45.78
H      34.26       3.75      49.16
H      35.93       3.65      47.40
H      38.79       4.30      42.39
H      36.82       3.22      43.17
H      36.86       5.66      46.62
H      38.83       6.73      45.84
H      40.87       6.42      44.34
H      41.49       8.90      43.33
H      45.55       9.78      43.33
H      46.92      16.81      48.39
H      48.61      14.75      46.06
H      47.16      11.78      42.99
H      47.93      13.77      44.06
H      44.33      13.97      46.26
H      43.55      11.99      45.19
H      42.98      11.01      42.86
H      50.37      16.45      45.99
H       2.77      18.82      49.41
H       1.08      18.08      47.36
H       1.32      20.74      47.65
H       1.29      23.13      47.43
H      48.01      18.47      49.71
H      50.06      25.09      48.03
H       4.05      33.22      48.17
H       2.75      31.85      49.66
H      48.91      25.61      49.95
H      49.31      29.80      47.83
H      49.05      27.41      47.95
H      47.99      32.16      49.33
H      49.72      32.55      47.31
H       2.96      34.48      45.09
H       0.62      33.93      45.83
H       4.11      38.11      42.59
H       3.09      36.49      44.01
H       6.25      36.96      46.78
H       7.25      38.59      45.37
H       6.61      40.94      44.38
H       8.95      41.99      43.87
H      16.81      49.46      45.84
H      14.75      47.13      47.53
H      12.00      46.26      42.48
H      13.98      47.34      43.25
H      13.77      45.14      46.85
H      11.78      44.07      46.08
H       9.78      44.41      44.48
H      16.45      47.07      49.29
H      18.08      48.43      50.40
H      25.09      49.11      48.98
H      29.80      48.91      48.23
H      27.41      49.03      47.97
H      32.16      50.41      46.92
H      32.55      48.39      48.65
H      33.93      46.91      49.94
H       8.37       5.69      28.81
H      12.05       4.30      27.29
H      13.72       2.92      26.31
H      14.08       5.63      23.09
H      12.43       7.02      24.08
H      11.26       7.59      26.36
H       9.68       5.18      26.64
H      16.13       4.62      22.98
H       8.89       8.38      25.62
H      17.44       1.52      24.03
H      31.85       0.34      22.67
H       0.71      16.68      23.84
H       5.69       8.89      28.30
H       4.14      12.41      26.94
H       3.15      14.07      25.54
H       6.40      13.75      22.86
H       7.38      12.07      24.25
H       6.42      11.26      27.52
H       6.73       9.69      25.11
H       3.05      16.13      24.54
H       4.11      17.44      21.45
H      49.79      18.07      22.40
H      49.43      21.04      21.78
H      49.41      23.43      21.56
H       0.99      32.62      22.37
H       1.11      29.74      22.02
H       0.85      27.35      22.14
H      46.85      33.83      21.20
H      50.24      34.26      23.68
H      48.48      35.93      23.57
H      44.40      41.49      28.82
H      46.92      38.83      26.65
H      47.70      36.86      25.58
H      44.25      36.81      23.15
H      43.47      38.79      24.22
H      45.41      40.87      26.35
H      42.73      39.80      26.41
H      18.82      50.48      22.69
H      20.74      48.73      21.24
H      23.13      48.51      21.21
H      33.22      49.25      23.97
H      41.64      42.17      25.72
H      34.48      46.17      22.88
H      41.99      44.94      28.87
H      38.58      46.44      27.18
H      36.95      47.85      26.18
H      36.50      45.09      23.01
H      38.11      43.67      24.02
H      39.24      43.12      26.36
H      40.93      45.46      26.53
H       3.92       0.72      36.60
H       4.61       3.06      36.05
H       2.92       6.39      33.65
H       4.31       7.37      31.98
H       5.62       3.16      33.99
H       7.02       4.15      32.34
H       7.59       6.43      31.18
H       5.18       6.72      29.61
H       1.52       4.10      37.36
H      49.46      46.92      36.73
H      47.13      48.61      34.67
H      47.34      44.32      33.90
H      46.26      43.55      31.92
H      45.14      47.93      33.69
H      44.07      47.16      31.70
H      44.41      45.55      29.70
H      43.94      42.99      30.94
H      47.07      50.37      36.37
H      48.43       1.08      38.00
H      50.48       2.77      38.74
H      48.73       1.32      40.66
H      48.51       1.30      43.05
H       2.48      49.79      38.00
H       0.39      48.01      38.39
H       1.85      49.43      40.97
H       1.64      49.41      43.35
H       0.63      48.91      45.53
H      49.10      50.06      45.01
H       2.44       0.99       2.00
H       2.10       1.10      49.67
H       2.22       0.85      47.27
H       0.33       2.75       1.22
H      49.24       4.05       2.59
H      46.16       2.95       3.86
H      46.91       0.61       3.31
H       3.75      50.24       3.64
H       1.27      46.85       3.21
H      48.90      49.31      49.72
H      49.02      49.06      47.33
H      48.39      49.72       1.93
H      50.41      47.99       1.53
H      39.80       6.48      12.10
H      42.17       5.80      11.01
H      47.84       6.26       6.31
H      46.43       7.26       7.95
H      45.09       3.08       5.88
H      43.67       4.09       7.50
H      43.12       6.43       8.61
H      45.46       6.62      10.31
H      44.94       8.95      11.37
H       5.80      41.64      11.54
H       6.44      39.24      12.50
H       3.65      48.47       5.30
H       3.23      44.25       6.19
H       4.30      43.47       8.16
H       5.66      47.70       6.23
H       6.74      46.92       8.20
H       6.43      45.41      10.24
H       6.48      42.73       9.17
H       8.90      44.40      10.86
H      11.01      43.94      12.36
H      16.68       3.92      20.49
H      18.07       2.48      19.17
H      21.04       1.86      18.81
H      23.43       1.64      18.79
H      18.47       0.39      17.39
H      25.61       0.64      18.28
H      32.62       2.45      20.76
H      29.74       2.10      20.89
H      27.35       2.22      20.63
H      33.84       1.27      16.23
H      34.26       3.75      19.61
H      35.93       3.65      17.85
H      38.79       4.30      12.84
H      36.82       3.22      13.62
H      36.86       5.66      17.07
H      38.83       6.73      16.30
H      40.87       6.42      14.79
H      41.49       8.90      13.78
H      45.55       9.78      13.78
H      46.92      16.81      18.84
H      48.61      14.75      16.51
H      47.16      11.78      13.44
H      47.93      13.77      14.51
H      44.33      13.97      16.72
H      43.55      11.99      15.64
H      42.98      11.01      13.32
H      50.37      16.45      16.44
H       2.77      18.82      19.86
H       1.08      18.08      17.81
H       1.32      20.74      18.11
H       1.29      23.13      17.88
H      48.01      18.47      20.16
H      50.06      25.09      18.48
H       4.05      33.22      18.63
H       2.75      31.85      20.11
H      48.91      25.61      20.40
H      49.31      29.80      18.28
H      49.05      27.41      18.40
H      47.99      32.16      19.78
H      49.72      32.55      17.76
H       2.96      34.48      15.54
H       0.62      33.93      16.28
H       4.11      38.11      13.04
H       3.09      36.49      14.46
H       6.25      36.96      17.23
H       7.25      38.59      15.82
H       6.61      40.94      14.83
H       8.95      41.99      14.32
H      16.81      49.46      16.29
H      14.75      47.13      17.99
H      12.00      46.26      12.93
H      13.98      47.34      13.70
H      13.77      45.14      17.30
H      11.78      44.07      16.53
H       9.78      44.41      14.93
H      16.45      47.07      19.74
H      18.08      48.43      20.85
H      25.09      49.11      19.43
H      29.80      48.91      18.68
H      27.41      49.03      18.42
H      32.16      50.41      17.37
H      32.55      48.39      19.10
H      33.93      46.91      20.39
C       6.97       7.27       7.76
C       8.11       6.55       7.32
C       8.40       8.11       5.48
C       6.55       8.40       7.03
C       8.84       6.97       6.19
C       9.87       6.16       5.71
C      11.08       6.61       5.32
C      12.07       5.80       4.78
C      12.48       4.60       5.40
C      12.70       6.17       3.57
C      13.69       5.35       2.99
C      14.10       4.14       3.60
C      13.46       3.78       4.82
C      15.05       3.26       3.01
C      16.90       2.84       1.46
C      17.56       1.73       2.04
C      18.39       0.90       1.26
C       7.27       8.84       5.89
C       6.79       9.87       5.09
C       6.39      11.08       5.54
C       5.85      12.07       4.72
C       4.64      12.69       5.08
C       6.49      12.49       3.53
C       5.91      13.48       2.71
C       4.68      14.10       3.06
C       4.06      13.69       4.27
C       4.09      15.06       2.18
C       2.53      16.90       1.77
C       1.17      17.14       2.05
C       0.39      17.96       1.21
C       3.11      17.56       0.66
C       0.61      29.25       0.28
C       0.46      27.85       0.34
C      50.41      32.83       1.15
C      47.77      33.54       0.51
C      49.73      33.80       1.91
C      48.40      34.18       1.61
C      43.08      41.66       6.18
C      43.68      42.08       7.39
C      43.45      40.47       5.57
C      44.71      40.19       5.17
C      45.11      39.00       4.56
C      46.34      38.42       4.92
C      44.35      38.38       3.54
C      44.81      37.21       2.90
C      46.06      36.64       3.24
C      46.81      37.26       4.27
C      46.53      35.47       2.56
C      33.09      49.06       1.98
C      32.27      49.92       1.23
C      33.74      47.95       1.37
C      41.66      43.67       6.22
C      42.07      42.46       5.60
C      40.70      44.49       5.64
C      39.48      44.08       5.26
C      38.52      44.92       4.69
C      38.15      46.14       5.30
C      37.87      44.55       3.49
C      36.90      45.38       2.91
C      36.53      46.62       3.50
C      37.18      46.98       4.70
C      35.59      47.51       2.89
C      42.29      44.07       7.42
C      43.30      43.29       8.01
C       2.29       0.39      16.88
C       3.12       1.17      16.07
C       2.84       2.53      15.82
C       4.13       4.68      13.02
C       3.78       5.90      12.39
C       4.60       6.48      11.40
C       5.80       5.85      10.99
C       6.16       4.64      11.62
C       5.34       4.06      12.61
C       6.61       6.39      10.00
C       6.16       6.78       8.79
C       3.25       4.08      13.97
C       1.73       3.11      16.48
C      49.18      47.85      16.05
C      48.09      48.51      15.43
C      47.82      49.84      15.82
C      46.36      46.21      12.99
C      46.64      44.93      12.46
C      46.00      44.47      11.29
C      45.05      45.27      10.62
C      44.76      46.55      11.16
C      45.40      47.01      12.32
C      44.45      44.88       9.43
C      43.90      43.67       9.21
C      47.05      46.67      14.16
C      48.61      50.49      16.79
C       1.16       0.97      17.51
C       0.90       2.34      17.31
C      49.43       0.84      20.22
C      49.31       0.82      21.63
C      50.51       0.17      19.60
C       1.07      49.92      20.40
C       0.93      49.91      21.80
C      49.97      48.49      17.01
C      49.70      49.83      17.39
C      50.24      50.54      22.44
C       1.35       0.60      28.18
C       1.42       0.46      26.78
C      49.68       0.92      30.99
C      48.56       0.32      31.60
C      47.70       1.08      32.41
C      47.95       2.45      32.66
C      49.05       3.06      32.01
C      49.91       2.30      31.19
C       1.14      49.78      31.13
C       0.28      50.44      28.91
C       0.42      50.16      26.08
C       0.83      48.45      31.48
C       1.59      47.77      32.46
C       2.68      48.40      33.10
C       2.99      49.73      32.72
C       2.23      50.41      31.75
C      49.67      49.75      28.21
C      49.74      49.60      26.81
C      41.66       7.26      42.01
C      46.61       4.58      35.46
C      46.97       5.79      36.10
C      46.14       6.38      37.07
C      44.92       5.77      37.44
C      44.55       4.57      36.80
C      45.38       3.98      35.83
C      44.08       6.33      38.40
C      44.49       6.72      39.62
C      43.67       7.30      40.58
C      42.46       6.68      40.99
C      47.51       3.97      34.51
C      44.07       8.49      41.21
C       6.68      42.07      41.38
C       4.32      46.06      35.56
C       3.98      44.81      36.14
C       4.61      44.35      37.30
C       5.64      45.11      37.92
C       6.00      46.34      37.34
C       5.35      46.81      36.17
C       6.25      44.71      39.11
C       6.65      43.45      39.39
C       7.26      43.08      40.58
C       3.64      46.53      34.39
C       8.47      43.68      41.00
C      17.14       3.12      50.49
C      17.96       2.28      49.71
C      18.58       1.16      50.29
C      22.88       0.94      48.83
C      21.48       1.07      48.85
C      32.20       1.14      48.70
C      29.98       0.29      49.36
C      29.25       1.36      49.93
C      27.85       1.42      49.79
C      27.15       0.42      49.08
C      32.83       2.23      49.34
C      32.56       0.83      47.37
C      33.54       1.59      46.70
C      33.80       2.99      48.66
C      34.18       2.68      47.33
C      40.47       6.65      42.37
C      40.19       6.25      43.63
C      39.00       5.64      44.03
C      38.39       4.61      43.28
C      38.42       6.00      45.27
C      37.26       5.35      45.73
C      36.64       4.32      44.99
C      37.22       3.97      43.74
C      35.47       3.64      45.45
C      42.08       8.47      42.60
C      43.29       9.09      42.23
C      48.51      16.50      47.01
C      43.67      10.29      42.83
C      44.88      10.51      43.37
C      45.27      11.70      43.97
C      46.55      12.24      43.68
C      44.47      12.37      44.92
C      44.93      13.54      45.56
C      46.21      14.07      45.29
C      47.01      13.40      44.32
C      46.67      15.24      45.97
C      49.84      16.90      46.75
C       2.34      18.39      50.23
C       0.96      18.58      50.48
C       0.83      21.30      48.36
C       0.82      22.70      48.23
C       0.17      20.67      49.43
C      49.92      21.48      50.39
C      47.85      17.12      48.10
C      48.49      18.09      48.89
C      49.91      22.88      50.26
C      49.83      18.46      48.62
C      50.54      23.52      49.16
C      50.49      17.86      47.54
C       0.93      32.06      48.61
C       0.33      32.67      47.49
C       3.06      33.09      47.98
C       2.30      32.27      48.84
C       1.08      33.48      46.62
C       2.45      33.74      46.88
C      49.75      29.29      48.60
C      49.60      27.89      48.67
C      49.78      32.20      50.46
C      50.44      29.98      49.61
C      50.16      27.15      49.74
C      48.45      32.56      50.16
C       7.29      41.66      42.59
C       6.71      40.70      43.42
C       6.33      39.48      43.01
C       5.77      38.52      43.84
C       4.58      37.87      43.46
C       6.37      38.16      45.07
C       5.78      37.19      45.90
C       4.57      36.54      45.54
C       3.99      36.90      44.30
C       3.97      35.60      46.43
C       8.49      42.29      43.00
C       9.09      43.31      42.21
C      16.51      48.09      47.43
C      10.29      43.90      42.59
C      10.51      44.45      43.80
C      11.70      45.04      44.20
C      12.37      46.00      43.39
C      12.24      44.76      45.47
C      13.40      45.40      45.93
C      14.07      46.36      45.13
C      13.54      46.63      43.85
C      15.24      47.05      45.59
C      16.90      47.82      48.77
C      17.12      49.18      46.77
C      18.09      49.97      47.42
C      18.46      49.70      48.75
C      20.67      50.51      49.50
C      21.30      49.43      50.16
C      22.70      49.31      50.14
C      23.52      50.24      49.46
C      17.86      48.61      49.42
C      33.48      47.70      50.41
C      32.67      48.56      49.65
C      32.06      49.69      50.25
C      27.89      49.75      48.52
C      29.28      49.68      48.67
C       6.97       7.27      28.76
C       8.11       6.55      28.32
C       8.40       8.11      26.48
C       6.55       8.40      28.03
C       8.84       6.97      27.19
C       9.87       6.16      26.71
C      11.08       6.61      26.32
C      12.07       5.80      25.78
C      12.48       4.60      26.40
C      12.70       6.17      24.57
C      13.69       5.35      23.99
C      14.10       4.14      24.60
C      13.46       3.78      25.82
C      15.05       3.26      24.01
C      16.90       2.84      22.46
C      17.56       1.73      23.04
C      18.39       0.90      22.26
C       7.27       8.84      26.89
C       6.79       9.87      26.09
C       6.39      11.08      26.54
C       5.85      12.07      25.72
C       4.64      12.69      26.08
C       6.49      12.49      24.53
C       5.91      13.48      23.71
C       4.68      14.10      24.06
C       4.06      13.69      25.27
C       4.09      15.06      23.18
C       2.53      16.90      22.77
C       1.17      17.14      23.05
C       0.39      17.96      22.21
C       3.11      17.56      21.66
C       0.61      29.25      21.28
C       0.46      27.85      21.34
C      50.41      32.83      22.15
C      47.77      33.54      21.51
C      49.73      33.80      22.91
C      48.40      34.18      22.61
C      43.08      41.66      27.18
C      43.68      42.08      28.39
C      43.45      40.47      26.57
C      44.71      40.19      26.17
C      45.11      39.00      25.56
C      46.34      38.42      25.92
C      44.35      38.38      24.54
C      44.81      37.21      23.90
C      46.06      36.64      24.24
C      46.81      37.26      25.27
C      46.53      35.47      23.56
C      33.09      49.06      22.98
C      32.27      49.92      22.23
C      33.74      47.95      22.37
C      41.66      43.67      27.22
C      42.07      42.46      26.60
C      40.70      44.49      26.64
C      39.48      44.08      26.26
C      38.52      44.92      25.69
C      38.15      46.14      26.30
C      37.87      44.55      24.49
C      36.90      45.38      23.91
C      36.53      46.62      24.50
C      37.18      46.98      25.70
C      35.59      47.51      23.89
C      42.29      44.07      28.42
C      43.30      43.29      29.01
C       2.29       0.39      37.88
C       3.12       1.17      37.07
C       2.84       2.53      36.82
C       4.13       4.68      34.02
C       3.78       5.90      33.39
C       4.60       6.48      32.40
C       5.80       5.85      31.99
C       6.16       4.64      32.62
C       5.34       4.06      33.61
C       6.61       6.39      31.00
C       6.16       6.78      29.79
C       3.25       4.08      34.97
C       1.73       3.11      37.48
C      49.18      47.85      37.05
C      48.09      48.51      36.43
C      47.82      49.84      36.82
C      46.36      46.21      33.99
C      46.64      44.93      33.46
C      46.00      44.47      32.29
C      45.05      45.27      31.62
C      44.76      46.55      32.16
C      45.40      47.01      33.32
C      44.45      44.88      30.43
C      43.90      43.67      30.21
C      47.05      46.67      35.16
C      48.61      50.49      37.79
C       1.16       0.97      38.51
C       0.90       2.34      38.31
C      49.43       0.84      41.22
C      49.31       0.82      42.63
C      50.51       0.17      40.60
C       1.07      49.92      41.40
C       0.93      49.91      42.80
C      49.97      48.49      38.01
C      49.70      49.83      38.39
C      50.24      50.54      43.44
C       1.35       0.60      49.18
C       1.42       0.46      47.78
C      49.68       0.92       1.44
C      48.56       0.32       2.05
C      47.70       1.08       2.86
C      47.95       2.45       3.11
C      49.05       3.06       2.46
C      49.91       2.30       1.64
C       1.14      49.78       1.58
C       0.28      50.44      49.91
C       0.42      50.16      47.08
C       0.83      48.45       1.93
C       1.59      47.77       2.91
C       2.68      48.40       3.55
C       2.99      49.73       3.17
C       2.23      50.41       2.20
C      49.67      49.75      49.21
C      49.74      49.60      47.81
C      41.66       7.26      12.46
C      46.61       4.58       5.91
C      46.97       5.79       6.55
C      46.14       6.38       7.52
C      44.92       5.77       7.89
C      44.55       4.57       7.25
C      45.38       3.98       6.28
C      44.08       6.33       8.85
C      44.49       6.72      10.07
C      43.67       7.30      11.03
C      42.46       6.68      11.44
C      47.51       3.97       4.96
C      44.07       8.49      11.66
C       6.68      42.07      11.83
C       4.32      46.06       6.01
C       3.98      44.81       6.59
C       4.61      44.35       7.76
C       5.64      45.11       8.37
C       6.00      46.34       7.79
C       5.35      46.81       6.63
C       6.25      44.71       9.56
C       6.65      43.45       9.84
C       7.26      43.08      11.03
C       3.64      46.53       4.84
C       8.47      43.68      11.45
C      17.14       3.12      20.94
C      17.96       2.28      20.16
C      18.58       1.16      20.74
C      22.88       0.94      19.28
C      21.48       1.07      19.30
C      32.20       1.14      19.15
C      29.98       0.29      19.81
C      29.25       1.36      20.38
C      27.85       1.42      20.24
C      27.15       0.42      19.53
C      32.83       2.23      19.79
C      32.56       0.83      17.82
C      33.54       1.59      17.15
C      33.80       2.99      19.11
C      34.18       2.68      17.78
C      40.47       6.65      12.82
C      40.19       6.25      14.08
C      39.00       5.64      14.48
C      38.39       4.61      13.73
C      38.42       6.00      15.72
C      37.26       5.35      16.19
C      36.64       4.32      15.44
C      37.22       3.97      14.19
C      35.47       3.64      15.90
C      42.08       8.47      13.06
C      43.29       9.09      12.68
C      48.51      16.50      17.46
C      43.67      10.29      13.28
C      44.88      10.51      13.82
C      45.27      11.70      14.42
C      46.55      12.24      14.13
C      44.47      12.37      15.38
C      44.93      13.54      16.01
C      46.21      14.07      15.74
C      47.01      13.40      14.77
C      46.67      15.24      16.42
C      49.84      16.90      17.20
C       2.34      18.39      20.68
C       0.96      18.58      20.93
C       0.83      21.30      18.81
C       0.82      22.70      18.68
C       0.17      20.67      19.89
C      49.92      21.48      20.84
C      47.85      17.12      18.55
C      48.49      18.09      19.34
C      49.91      22.88      20.71
C      49.83      18.46      19.07
C      50.54      23.52      19.62
C      50.49      17.86      17.99
C       0.93      32.06      19.06
C       0.33      32.67      17.94
C       3.06      33.09      18.43
C       2.30      32.27      19.29
C       1.08      33.48      17.07
C       2.45      33.74      17.33
C      49.75      29.29      19.05
C      49.60      27.89      19.12
C      49.78      32.20      20.91
C      50.44      29.98      20.06
C      50.16      27.15      20.19
C      48.45      32.56      20.61
C       7.29      41.66      13.04
C       6.71      40.70      13.87
C       6.33      39.48      13.46
C       5.77      38.52      14.30
C       4.58      37.87      13.92
C       6.37      38.16      15.52
C       5.78      37.19      16.35
C       4.57      36.54      15.99
C       3.99      36.90      14.75
C       3.97      35.60      16.88
C       8.49      42.29      13.45
C       9.09      43.31      12.66
C      16.51      48.09      17.88
C      10.29      43.90      13.04
C      10.51      44.45      14.25
C      11.70      45.04      14.65
C      12.37      46.00      13.84
C      12.24      44.76      15.92
C      13.40      45.40      16.38
C      14.07      46.36      15.58
C      13.54      46.63      14.30
C      15.24      47.05      16.04
C      16.90      47.82      19.22
C      17.12      49.18      17.22
C      18.09      49.97      17.87
C      18.46      49.70      19.20
C      20.67      50.51      19.95
C      21.30      49.43      20.61
C      22.70      49.31      20.59
C      23.52      50.24      19.91
C      17.86      48.61      19.87
C      33.48      47.70      20.86
C      32.67      48.56      20.10
C      32.06      49.69      20.70
C      27.89      49.75      18.97
C      29.28      49.68      19.12
N      16.05       3.66       2.17
N       3.24      16.05       2.59
N      47.85      35.24       2.29
N      34.58      47.12       2.07
N       3.66       3.24      14.97
N      47.38      47.98      14.37
N       0.23      50.53      18.19
N       0.59      49.93      24.69
N      50.00      50.52      23.85
N      47.11       3.14      33.50
N       0.25      50.53      30.32
N       3.37      47.84      34.16
N      19.26       0.23      49.46
N      25.76       0.59      48.85
N      31.40       0.26      49.46
N      35.25       3.36      46.77
N      47.98      15.44      46.31
N      50.53      19.26      49.56
N      50.52      24.93      48.93
N      50.54      31.40      49.58
N      49.93      25.77      49.91
N       3.14      34.58      46.04
N      15.45      47.38      46.90
N      24.93      50.01      49.44
N      16.05       3.66      23.17
N       3.24      16.05      23.59
N      47.85      35.24      23.29
N      34.58      47.12      23.07
N       3.66       3.24      35.97
N      47.38      47.98      35.37
N       0.23      50.53      39.19
N       0.59      49.93      45.69
N      50.00      50.52      44.85
N      47.11       3.14       3.95
N       0.25      50.53       0.77
N       3.37      47.84       4.62
N      19.26       0.23      19.91
N      25.76       0.59      19.30
N      31.40       0.26      19.91
N      35.25       3.36      17.22
N      47.98      15.44      16.76
N      50.53      19.26      20.01
N      50.52      24.93      19.38
N      50.54      31.40      20.03
N      49.93      25.77      20.36
N       3.14      34.58      16.49
N      15.45      47.38      17.35
N      24.93      50.01      19.89
O      14.86       1.93       3.20
O       4.29      14.87       0.86
O      45.60      34.54       2.25
O      35.81      48.83       3.08
O       1.93       4.28      13.78
O      47.32      45.74      15.11
O       3.33      45.60      33.46
O      48.83       4.17      34.72
O      34.54       3.32      44.52
O      45.74      16.19      46.24
O       4.16      35.81      47.76
O      16.19      47.31      44.67
O      14.86       1.93      24.20
O       4.29      14.87      21.86
O      45.60      34.54      23.25
O      35.81      48.83      24.08
O       1.93       4.28      34.78
O      47.32      45.74      36.11
O       3.33      45.60       3.91
O      48.83       4.17       5.17
O      34.54       3.32      14.97
O      45.74      16.19      16.69
O       4.16      35.81      18.21
O      16.19      47.31      15.12
