960

H      30.68       5.08      17.42
H       0.75       1.71      20.64
H       0.49       5.03      19.70
H       2.74       3.09      19.44
H       2.58       4.53      18.41
H       0.75      35.93      20.64
H       0.49      32.61      19.70
H       2.74      34.55      19.44
H       2.58      33.11      18.41
H       6.71       6.45      25.38
H       6.70       6.45      27.74
H       7.05       7.36      22.07
H       2.47       7.21      22.67
H       4.92       8.62      22.47
H       4.73       7.62      23.92
H       7.60       9.68      22.01
H       4.92      29.02      22.47
H       6.71      31.19      25.38
H       7.05      30.28      22.07
H       2.48      30.43      22.67
H       4.73      30.02      23.92
H       6.70      31.19      27.73
H      30.68       5.08      35.71
H       0.74       1.71      32.48
H       0.40       5.01      33.39
H       4.98       4.42      33.24
H       2.53       4.62      34.66
H       2.73       3.17      33.66
H       6.96       7.39      31.05
H       4.71       7.66      29.13
H       4.87       8.68      30.56
H       7.60       9.68      31.10
H       4.87      28.96      30.56
H       7.60      27.97      31.10
H       0.74      35.93      32.48
H       0.40      32.63      33.39
H       6.96      30.25      31.05
H       4.98      33.23      33.23
H       2.52      33.01      34.66
H       2.73      34.46      33.66
H       4.71      29.98      29.13
H      14.71      14.32      19.70
H      14.45      17.64      20.64
H      12.46      16.26      19.44
H      12.62      14.82      18.41
H      14.44      20.00      20.64
H      12.46      21.38      19.44
H      15.34      23.37      17.42
H      14.70      23.31      19.70
H      12.61      22.82      18.41
H       8.48      12.91      25.38
H       8.14      11.99      22.07
H      12.72      12.14      22.67
H      10.27      10.73      22.47
H      10.46      11.73      23.92
H       8.49      12.90      27.74
H       8.48      24.73      25.38
H       8.14      25.65      22.07
H      12.72      25.49      22.67
H      10.27      26.91      22.47
H      10.46      25.91      23.92
H       7.60      27.96      22.01
H       8.49      24.74      27.74
H      14.80      14.34      33.38
H       8.23      11.96      31.05
H      10.49      11.69      29.13
H      10.32      10.67      30.57
H      14.45      17.64      32.48
H      10.22      14.94      33.23
H      12.67      14.72      34.66
H      12.47      16.17      33.66
H      14.45      20.00      32.48
H      12.47      21.46      33.66
H      14.80      23.30      33.39
H       8.23      25.68      31.05
H      10.22      22.71      33.24
H      12.67      22.91      34.66
H      10.48      25.95      29.13
H      10.32      26.97      30.56
H      15.34      23.37      35.71
H      15.89      14.34       1.45
H      23.08       9.67       3.73
H      22.19      12.90       7.10
H      22.45      11.96       3.78
H      20.20      11.69       5.71
H      20.36      10.67       4.27
H      16.23      17.64       2.36
H      20.47      14.93       1.60
H      18.01      14.72       0.17
H      18.21      16.17       1.17
H      16.23      20.00       2.36
H      18.21      21.47       1.17
H      15.88      23.30       1.45
H      22.19      24.74       7.10
H      22.45      25.68       3.79
H      20.46      22.70       1.60
H      18.01      22.92       0.17
H      20.19      25.95       5.71
H      20.36      26.97       4.27
H      23.08      27.96       3.73
H      22.20      12.90       9.46
H      22.54      11.99      12.76
H      17.96      12.14      12.16
H      20.41      10.73      12.36
H      20.22      11.73      10.91
H      16.24      17.64      14.19
H      16.24      20.00      14.19
H      22.20      24.73       9.46
H      22.54      25.64      12.76
H      17.96      25.50      12.16
H      20.41      26.91      12.36
H      20.22      25.91      10.91
H      15.34      14.27      17.42
H      15.98      14.32      15.13
H      18.22      16.26      15.39
H      18.07      14.82      16.42
H      18.22      21.38      15.39
H      15.97      23.31      15.13
H      18.07      22.82      16.42
H      15.34      14.27      35.71
H      29.94       1.71       2.36
H      30.28       5.01       1.45
H      23.98       6.45       7.10
H      25.70       4.41       1.60
H      28.16       4.62       0.17
H      27.96       3.17       1.17
H      23.72       7.39       3.79
H      25.97       7.65       5.71
H      25.81       8.68       4.27
H      25.81      28.96       4.27
H      29.94      35.93       2.36
H      30.28      32.63       1.45
H      23.98      31.19       7.10
H      23.72      30.25       3.78
H      25.70      33.22       1.60
H      28.16      33.01       0.17
H      27.95      34.46       1.17
H      25.97      29.98       5.71
H      23.97       6.44       9.46
H      29.93       1.71      14.19
H      23.08       9.67      12.83
H      23.63       7.35      12.76
H      28.21       7.21      12.16
H      25.76       8.62      12.37
H      25.95       7.62      10.91
H      23.09      27.96      12.83
H      25.76      29.02      12.36
H      23.97      31.19       9.46
H      23.63      30.28      12.76
H      29.93      35.93      14.19
H      28.21      30.43      12.16
H      25.95      30.02      10.91
H      30.19       5.02      15.13
H      27.95       3.09      15.39
H      28.10       4.53      16.42
H      30.83      32.56      17.42
H      30.19      32.61      15.13
H      27.94      34.55      15.39
H      28.10      33.11      16.42
H      30.83      32.56      35.71
H      10.85       5.08      17.42
H      11.75       1.71      20.64
H      11.49       5.03      19.70
H      13.74       3.09      19.44
H      13.58       4.53      18.41
H      11.75      35.93      20.64
H      11.49      32.61      19.70
H      13.74      34.55      19.44
H      13.58      33.11      18.41
H      17.71       6.45      25.38
H      17.70       6.45      27.74
H      18.05       7.36      22.07
H      13.47       7.21      22.67
H      15.92       8.62      22.47
H      15.73       7.62      23.92
H      18.60       9.68      22.01
H      15.92      29.02      22.47
H      17.71      31.19      25.38
H      18.05      30.28      22.07
H      13.48      30.43      22.67
H      15.73      30.02      23.92
H      17.70      31.19      27.73
H      10.86       5.08      35.71
H      11.74       1.71      32.48
H      11.40       5.01      33.39
H      15.98       4.42      33.24
H      13.53       4.62      34.66
H      13.73       3.17      33.66
H      17.96       7.39      31.05
H      15.71       7.66      29.13
H      15.87       8.68      30.56
H      18.60       9.68      31.10
H      15.87      28.96      30.56
H      18.60      27.97      31.10
H      11.74      35.93      32.48
H      11.40      32.63      33.39
H      17.96      30.25      31.05
H      15.98      33.23      33.23
H      13.52      33.01      34.66
H      13.73      34.46      33.66
H      15.71      29.98      29.13
H      25.71      14.32      19.70
H      25.45      17.64      20.64
H      23.46      16.26      19.44
H      23.62      14.82      18.41
H      25.44      20.00      20.64
H      23.46      21.38      19.44
H      26.34      23.37      17.42
H      25.70      23.31      19.70
H      23.61      22.82      18.41
H      19.48      12.91      25.38
H      19.14      11.99      22.07
H      23.72      12.14      22.67
H      21.27      10.73      22.47
H      21.46      11.73      23.92
H      19.49      12.90      27.74
H      19.48      24.73      25.38
H      19.14      25.65      22.07
H      23.72      25.49      22.67
H      21.27      26.91      22.47
H      21.46      25.91      23.92
H      18.60      27.96      22.01
H      19.49      24.74      27.74
H      25.80      14.34      33.38
H      19.23      11.96      31.05
H      21.49      11.69      29.13
H      21.32      10.67      30.57
H      25.45      17.64      32.48
H      21.22      14.94      33.23
H      23.67      14.72      34.66
H      23.47      16.17      33.66
H      25.45      20.00      32.48
H      23.47      21.46      33.66
H      25.80      23.30      33.39
H      19.23      25.68      31.05
H      21.22      22.71      33.24
H      23.67      22.91      34.66
H      21.48      25.95      29.13
H      21.32      26.97      30.56
H      26.34      23.37      35.71
H      26.89      14.34       1.45
H       3.26       9.67       3.73
H       2.36      12.90       7.10
H       2.63      11.96       3.78
H       0.37      11.69       5.71
H       0.53      10.67       4.27
H      27.23      17.64       2.36
H       0.64      14.93       1.60
H      29.01      14.72       0.17
H      29.21      16.17       1.17
H      27.23      20.00       2.36
H      29.21      21.47       1.17
H      26.88      23.30       1.45
H       2.36      24.74       7.10
H       2.62      25.68       3.79
H       0.64      22.70       1.60
H      29.01      22.92       0.17
H       0.37      25.95       5.71
H       0.53      26.97       4.27
H       3.26      27.96       3.73
H       2.37      12.90       9.46
H       2.71      11.99      12.76
H      28.96      12.14      12.16
H       0.58      10.73      12.36
H       0.39      11.73      10.91
H      27.24      17.64      14.19
H      27.24      20.00      14.19
H       2.37      24.73       9.46
H       2.71      25.64      12.76
H      28.96      25.50      12.16
H       0.58      26.91      12.36
H       0.39      25.91      10.91
H      26.34      14.27      17.42
H      26.98      14.32      15.13
H      29.22      16.26      15.39
H      29.07      14.82      16.42
H      29.22      21.38      15.39
H      26.97      23.31      15.13
H      29.07      22.82      16.42
H      26.34      14.27      35.71
H      10.11       1.71       2.36
H      10.46       5.01       1.45
H       4.15       6.45       7.10
H       5.88       4.41       1.60
H       8.33       4.62       0.17
H       8.13       3.17       1.17
H       3.89       7.39       3.79
H       6.15       7.65       5.71
H       5.98       8.68       4.27
H       5.98      28.96       4.27
H      10.11      35.93       2.36
H      10.46      32.63       1.45
H       4.15      31.19       7.10
H       3.89      30.25       3.78
H       5.88      33.22       1.60
H       8.33      33.01       0.17
H       8.13      34.46       1.17
H       6.14      29.98       5.71
H       4.14       6.44       9.46
H      10.11       1.71      14.19
H       3.26       9.67      12.83
H       3.80       7.35      12.76
H       8.38       7.21      12.16
H       5.93       8.62      12.37
H       6.12       7.62      10.91
H       3.26      27.96      12.83
H       5.93      29.02      12.36
H       4.14      31.19       9.46
H       3.80      30.28      12.76
H      10.11      35.93      14.19
H       8.38      30.43      12.16
H       6.12      30.02      10.91
H      10.37       5.02      15.13
H       8.12       3.09      15.39
H       8.28       4.53      16.42
H      11.00      32.56      17.42
H      10.36      32.61      15.13
H       8.12      34.55      15.39
H       8.27      33.11      16.42
H      11.00      32.56      35.71
C      30.68       1.24      17.42
C      30.68       4.05      17.42
C       0.25       3.36      18.58
C       0.20       1.95      18.60
C       0.52       1.23      19.77
C       3.11       4.91      20.39
C       4.53       4.94      20.43
C       5.30       4.23      19.66
C       2.35       4.12      19.40
C       0.52      36.24      19.77
C      30.68      36.40      17.42
C       0.25      34.27      18.58
C       0.20      35.69      18.60
C       3.11      32.73      20.39
C       4.53      32.70      20.42
C       5.30      33.41      19.66
C       2.35      33.52      19.40
C       3.04       6.59      22.09
C       4.45       6.63      22.11
C       7.26       8.49      25.13
C       7.22       8.51      23.72
C       6.94       7.32      25.86
C       6.93       7.32      27.25
C       5.15       7.65      22.91
C       7.60       9.68      23.03
C       7.60       9.68      25.84
C       7.25       8.49      27.98
C       7.60       9.68      27.27
C       7.60      27.96      25.84
C       7.60      27.96      27.27
C       7.22      29.13      23.72
C       7.26      29.15      25.13
C       6.94      30.32      25.86
C       6.93      30.32      27.25
C       3.04      31.05      22.09
C       4.45      31.01      22.11
C       5.15      29.99      22.91
C       7.25      29.15      27.98
C      30.68       4.05      35.71
C       0.23       3.36      34.54
C       0.20       1.95      34.52
C       0.51       1.23      33.35
C       4.34       6.71      30.95
C       4.41       5.00      32.62
C       3.00       4.98      32.67
C       2.92       6.68      30.98
C       2.30       4.18      33.68
C      30.68       1.24      35.71
C       0.51      36.24      33.35
C       7.20       8.51      29.39
C       2.15       7.45      30.28
C       5.10       7.69      30.15
C       7.60       9.68      30.08
C       7.60      27.97      30.08
C      30.68      36.40      35.71
C       0.23      34.27      34.54
C       0.19      35.69      34.52
C       7.20      29.13      29.39
C       4.34      30.93      30.95
C       4.41      32.64      32.62
C       3.00      32.65      32.67
C       2.92      30.96      30.99
C       2.15      30.18      30.28
C       2.30      33.46      33.68
C       5.10      29.95      30.15
C      12.08      14.44      20.39
C      10.67      14.41      20.42
C      15.34      19.53      17.42
C      14.99      17.40      18.60
C      14.95      15.98      18.58
C       9.90      15.12      19.65
C      12.84      15.23      19.40
C      14.68      18.12      19.77
C      14.99      20.24      18.60
C      14.95      21.65      18.58
C      14.68      19.52      19.77
C      15.34      22.34      17.42
C      12.08      23.20      20.39
C      10.67      23.23      20.43
C       9.90      22.52      19.66
C      12.84      22.40      19.40
C       7.97      10.84      23.72
C       7.94      10.86      25.13
C       8.26      12.03      25.86
C       8.26      12.03      27.25
C      12.15      12.76      22.09
C      10.75      12.72      22.11
C      10.04      11.70      22.91
C       7.94      10.86      27.98
C       7.94      26.78      25.13
C       7.97      26.80      23.72
C       8.25      25.61      25.86
C       8.26      25.61      27.26
C      12.15      24.87      22.09
C      10.74      24.92      22.11
C      10.04      25.94      22.91
C       7.60      27.96      23.03
C       7.94      26.78      27.98
C       7.99      10.84      29.39
C      10.86      12.64      30.95
C      10.79      14.35      32.62
C      12.19      14.36      32.67
C      12.27      12.67      30.99
C      13.04      11.89      30.28
C      10.10      11.66      30.15
C      15.00      17.40      34.52
C      14.96      15.98      34.54
C      12.90      15.17      33.68
C      14.68      18.12      33.35
C      15.00      20.24      34.52
C      14.96      21.66      34.54
C      14.68      19.52      33.35
C       7.99      26.80      29.39
C      10.85      25.00      30.95
C      10.78      23.29      32.62
C      12.19      23.27      32.67
C      12.27      24.97      30.98
C      13.04      25.74      30.28
C      12.89      22.47      33.68
C      10.10      25.98      30.15
C      15.34      22.35      35.71
C      22.74      10.86       6.86
C      22.69      10.83       5.44
C      23.08       9.67       4.75
C      19.83      12.64       3.89
C      19.90      14.35       2.21
C      18.49      14.36       2.16
C      18.41      12.67       3.85
C      17.64      11.90       4.56
C      20.58      11.66       4.68
C      15.72      15.98       0.29
C      15.68      17.40       0.31
C      17.79      15.17       1.15
C      16.00      18.12       1.48
C      15.72      21.66       0.29
C      15.68      20.24       0.31
C      16.00      19.52       1.48
C      22.69      26.80       5.44
C      22.73      26.78       6.86
C      19.82      25.00       3.89
C      19.89      23.29       2.21
C      18.49      23.28       2.16
C      18.41      24.97       3.85
C      17.64      25.75       4.55
C      17.79      22.47       1.15
C      20.58      25.98       4.68
C      23.08      27.96       4.75
C      22.42      12.03       7.58
C      22.43      12.03       8.98
C      22.74      10.86       9.70
C      22.71      10.84      11.12
C      18.60      14.44      14.44
C      18.53      12.76      12.74
C      19.94      12.72      12.72
C      20.02      14.41      14.41
C      20.64      11.70      11.92
C      22.42      25.61       7.58
C      23.08      27.96       7.57
C      22.43      25.61       8.98
C      22.71      26.80      11.12
C      22.74      26.78       9.70
C      18.60      23.20      14.44
C      18.53      24.88      12.74
C      19.94      24.92      12.72
C      20.01      23.23      14.41
C      20.64      25.94      11.92
C      15.34      18.11      17.42
C      15.34      15.29      17.42
C      15.74      15.98      16.25
C      15.69      17.40      16.23
C      20.78      15.12      15.18
C      17.84      15.23      15.43
C      16.01      18.12      15.06
C      15.73      21.65      16.25
C      15.69      20.24      16.23
C      16.01      19.52      15.06
C      20.78      22.52      15.18
C      17.84      22.41      15.43
C      15.34      18.11      35.71
C      15.34      15.29      35.71
C      15.34      19.53      35.71
C      30.49       1.95       0.31
C      30.45       3.36       0.29
C      30.17       1.23       1.48
C      26.34       6.71       3.89
C      26.27       5.00       2.21
C      27.68       4.98       2.16
C      27.76       6.68       3.85
C      28.38       4.18       1.15
C      30.17      36.24       1.48
C      23.48       8.51       5.44
C      23.43       8.49       6.86
C      28.53       7.46       4.55
C      25.58       7.69       4.68
C      30.49      35.69       0.31
C      30.45      34.27       0.29
C      23.43      29.15       6.86
C      23.48      29.13       5.44
C      26.34      30.93       3.89
C      26.27      32.64       2.21
C      27.68      32.65       2.16
C      27.76      30.96       3.85
C      28.53      30.19       4.56
C      28.38      33.46       1.15
C      25.58      29.95       4.68
C      27.57       4.91      14.44
C      27.64       6.59      12.74
C      26.23       6.63      12.72
C      26.15       4.94      14.41
C      23.08       9.67      11.80
C      23.75       7.32       7.58
C      23.08       9.67       7.57
C      23.74       7.32       8.98
C      23.46       8.51      11.12
C      23.42       8.49       9.70
C      25.53       7.65      11.92
C      23.08       9.67       8.99
C      23.08      27.96       8.99
C      23.08      27.96      11.80
C      23.75      30.32       7.58
C      23.74      30.32       8.98
C      23.42      29.15       9.70
C      23.46      29.13      11.12
C      27.57      32.73      14.44
C      27.64      31.05      12.74
C      26.23      31.01      12.72
C      26.15      32.70      14.41
C      25.53      29.99      11.92
C      30.48       1.95      16.23
C      30.43       3.36      16.25
C      30.16       1.23      15.06
C      25.38       4.22      15.18
C      28.33       4.12      15.43
C      30.16      36.24      15.06
C      30.48      35.69      16.23
C      30.43      34.27      16.26
C      30.83      33.59      17.42
C      25.38      33.41      15.18
C      28.33      33.52      15.43
C      30.83      33.58      35.71
C      10.85       1.24      17.42
C      10.85       4.05      17.42
C      11.25       3.36      18.58
C      11.20       1.95      18.60
C      11.52       1.23      19.77
C      14.11       4.91      20.39
C      15.53       4.94      20.43
C      16.30       4.23      19.66
C      13.35       4.12      19.40
C      11.52      36.24      19.77
C      10.85      36.40      17.42
C      11.25      34.27      18.58
C      11.20      35.69      18.60
C      14.11      32.73      20.39
C      15.53      32.70      20.42
C      16.30      33.41      19.66
C      13.35      33.52      19.40
C      14.04       6.59      22.09
C      15.45       6.63      22.11
C      18.26       8.49      25.13
C      18.22       8.51      23.72
C      17.94       7.32      25.86
C      17.93       7.32      27.25
C      16.15       7.65      22.91
C      18.60       9.68      23.03
C      18.60       9.68      25.84
C      18.25       8.49      27.98
C      18.60       9.68      27.27
C      18.60      27.96      25.84
C      18.60      27.96      27.27
C      18.22      29.13      23.72
C      18.26      29.15      25.13
C      17.94      30.32      25.86
C      17.93      30.32      27.25
C      14.04      31.05      22.09
C      15.45      31.01      22.11
C      16.15      29.99      22.91
C      18.25      29.15      27.98
C      10.86       4.05      35.71
C      11.23       3.36      34.54
C      11.20       1.95      34.52
C      11.51       1.23      33.35
C      15.34       6.71      30.95
C      15.41       5.00      32.62
C      14.00       4.98      32.67
C      13.92       6.68      30.98
C      13.30       4.18      33.68
C      10.85       1.24      35.71
C      11.51      36.24      33.35
C      18.20       8.51      29.39
C      13.15       7.45      30.28
C      16.10       7.69      30.15
C      18.60       9.68      30.08
C      18.60      27.97      30.08
C      10.85      36.40      35.71
C      11.23      34.27      34.54
C      11.19      35.69      34.52
C      18.20      29.13      29.39
C      15.34      30.93      30.95
C      15.41      32.64      32.62
C      14.00      32.65      32.67
C      13.92      30.96      30.99
C      13.15      30.18      30.28
C      13.30      33.46      33.68
C      16.10      29.95      30.15
C      23.08      14.44      20.39
C      21.67      14.41      20.42
C      26.34      19.53      17.42
C      25.99      17.40      18.60
C      25.95      15.98      18.58
C      20.90      15.12      19.65
C      23.84      15.23      19.40
C      25.68      18.12      19.77
C      25.99      20.24      18.60
C      25.95      21.65      18.58
C      25.68      19.52      19.77
C      26.34      22.34      17.42
C      23.08      23.20      20.39
C      21.67      23.23      20.43
C      20.90      22.52      19.66
C      23.84      22.40      19.40
C      18.97      10.84      23.72
C      18.94      10.86      25.13
C      19.26      12.03      25.86
C      19.26      12.03      27.25
C      23.15      12.76      22.09
C      21.75      12.72      22.11
C      21.04      11.70      22.91
C      18.94      10.86      27.98
C      18.94      26.78      25.13
C      18.97      26.80      23.72
C      19.25      25.61      25.86
C      19.26      25.61      27.26
C      23.15      24.87      22.09
C      21.74      24.92      22.11
C      21.04      25.94      22.91
C      18.60      27.96      23.03
C      18.94      26.78      27.98
C      18.99      10.84      29.39
C      21.86      12.64      30.95
C      21.79      14.35      32.62
C      23.19      14.36      32.67
C      23.27      12.67      30.99
C      24.04      11.89      30.28
C      21.10      11.66      30.15
C      26.00      17.40      34.52
C      25.96      15.98      34.54
C      23.90      15.17      33.68
C      25.68      18.12      33.35
C      26.00      20.24      34.52
C      25.96      21.66      34.54
C      25.68      19.52      33.35
C      18.99      26.80      29.39
C      21.85      25.00      30.95
C      21.78      23.29      32.62
C      23.19      23.27      32.67
C      23.27      24.97      30.98
C      24.04      25.74      30.28
C      23.89      22.47      33.68
C      21.10      25.98      30.15
C      26.34      22.35      35.71
C       2.91      10.86       6.86
C       2.86      10.83       5.44
C       3.26       9.67       4.75
C      30.83      12.64       3.89
C       0.07      14.35       2.21
C      29.49      14.36       2.16
C      29.41      12.67       3.85
C      28.64      11.90       4.56
C       0.76      11.66       4.68
C      26.72      15.98       0.29
C      26.68      17.40       0.31
C      28.79      15.17       1.15
C      27.00      18.12       1.48
C      26.72      21.66       0.29
C      26.68      20.24       0.31
C      27.00      19.52       1.48
C       2.86      26.80       5.44
C       2.91      26.78       6.86
C      30.82      25.00       3.89
C       0.07      23.29       2.21
C      29.49      23.28       2.16
C      29.41      24.97       3.85
C      28.64      25.75       4.55
C      28.79      22.47       1.15
C       0.76      25.98       4.68
C       3.26      27.96       4.75
C       2.59      12.03       7.58
C       2.60      12.03       8.98
C       2.92      10.86       9.70
C       2.88      10.84      11.12
C      29.60      14.44      14.44
C      29.53      12.76      12.74
C       0.11      12.72      12.72
C       0.19      14.41      14.41
C       0.81      11.70      11.92
C       2.59      25.61       7.58
C       3.26      27.96       7.57
C       2.60      25.61       8.98
C       2.88      26.80      11.12
C       2.92      26.78       9.70
C      29.60      23.20      14.44
C      29.53      24.88      12.74
C       0.11      24.92      12.72
C       0.19      23.23      14.41
C       0.81      25.94      11.92
C      26.34      18.11      17.42
C      26.34      15.29      17.42
C      26.74      15.98      16.25
C      26.69      17.40      16.23
C       0.96      15.12      15.18
C      28.84      15.23      15.43
C      27.01      18.12      15.06
C      26.73      21.65      16.25
C      26.69      20.24      16.23
C      27.01      19.52      15.06
C       0.96      22.52      15.18
C      28.84      22.41      15.43
C      26.34      18.11      35.71
C      26.34      15.29      35.71
C      26.34      19.53      35.71
C      10.66       1.95       0.31
C      10.62       3.36       0.29
C      10.34       1.23       1.48
C       6.51       6.71       3.89
C       6.45       5.00       2.21
C       7.85       4.98       2.16
C       7.93       6.68       3.85
C       8.55       4.18       1.15
C      10.34      36.24       1.48
C       3.65       8.51       5.44
C       3.60       8.49       6.86
C       8.70       7.46       4.55
C       5.76       7.69       4.68
C      10.66      35.69       0.31
C      10.62      34.27       0.29
C       3.60      29.15       6.86
C       3.65      29.13       5.44
C       6.51      30.93       3.89
C       6.44      32.64       2.21
C       7.85      32.65       2.16
C       7.93      30.96       3.85
C       8.70      30.19       4.56
C       8.55      33.46       1.15
C       5.76      29.95       4.68
C       7.74       4.91      14.44
C       7.81       6.59      12.74
C       6.41       6.63      12.72
C       6.33       4.94      14.41
C       3.26       9.67      11.80
C       3.92       7.32       7.58
C       3.26       9.67       7.57
C       3.91       7.32       8.98
C       3.63       8.51      11.12
C       3.60       8.49       9.70
C       5.70       7.65      11.92
C       3.26       9.67       8.99
C       3.26      27.96       8.99
C       3.26      27.96      11.80
C       3.92      30.32       7.58
C       3.91      30.32       8.98
C       3.60      29.15       9.70
C       3.63      29.13      11.12
C       7.74      32.73      14.44
C       7.81      31.05      12.74
C       6.41      31.01      12.72
C       6.33      32.70      14.41
C       5.70      29.99      11.92
C      10.65       1.95      16.23
C      10.61       3.36      16.25
C      10.34       1.23      15.06
C       5.56       4.22      15.18
C       8.50       4.12      15.43
C      10.34      36.24      15.06
C      10.65      35.69      16.23
C      10.61      34.27      16.26
C      11.00      33.59      17.42
C       5.56      33.41      15.18
C       8.50      33.52      15.43
C      11.00      33.58      35.71
N       0.88       4.08      19.63
N       2.44       5.74      21.23
N       5.13       5.80      21.28
N       5.97       3.59      18.98
N       0.88      33.56      19.63
N       2.44      31.90      21.23
N       5.13      31.83      21.27
N       5.97      34.05      18.98
N       6.62       7.44      23.00
N       6.62      30.20      23.00
N       0.83       4.08      33.48
N       5.01       5.86      31.77
N       2.32       5.83      31.85
N       6.57       7.47      30.10
N       1.47       8.13      29.65
N       0.83      33.56      33.48
N       6.57      30.17      30.10
N       5.01      31.78      31.77
N       2.32      31.81      31.85
N       1.48      29.50      29.66
N      12.76      13.61      21.23
N      10.07      13.54      21.27
N      14.32      15.27      19.63
N       9.22      15.75      18.97
N      14.31      22.37      19.63
N      12.76      24.03      21.23
N      10.07      24.09      21.28
N       9.22      21.88      18.98
N       8.57      11.91      23.00
N       8.57      25.73      23.00
N       8.63      11.88      30.10
N      10.18      13.49      31.77
N      12.87      13.52      31.85
N      13.72      11.21      29.66
N      14.37      15.27      33.48
N      14.36      22.37      33.48
N       8.62      25.76      30.10
N      10.18      24.15      31.77
N      12.87      24.12      31.85
N      13.72      26.42      29.65
N      22.06      11.88       4.73
N      20.50      13.49       3.06
N      17.81      13.52       2.98
N      16.96      11.22       5.19
N      16.32      15.27       1.36
N      16.31      22.37       1.36
N      22.06      25.76       4.73
N      20.50      24.15       3.06
N      17.81      24.12       2.98
N      16.96      26.43       5.18
N      22.11      11.91      11.83
N      17.92      13.61      13.60
N      20.62      13.54      13.56
N      22.11      25.73      11.83
N      17.92      24.03      13.60
N      20.61      24.10      13.56
N      16.37      15.27      15.21
N      21.46      15.75      15.86
N      16.37      22.37      15.21
N      21.46      21.89      15.86
N      29.85       4.08       1.36
N      25.67       5.86       3.06
N      28.36       5.83       2.98
N      24.11       7.46       4.73
N      29.20       8.14       5.18
N      29.85      33.56       1.36
N      24.11      30.17       4.73
N      25.67      31.78       3.06
N      28.36      31.81       2.99
N      29.20      29.51       5.19
N      28.24       5.74      13.60
N      25.55       5.80      13.56
N      24.06       7.44      11.83
N      24.06      30.20      11.83
N      28.24      31.90      13.60
N      25.55      31.83      13.56
N      29.80       4.08      15.21
N      24.71       3.59      15.86
N      29.80      33.56      15.21
N      24.71      34.05      15.86
N      11.88       4.08      19.63
N      13.44       5.74      21.23
N      16.13       5.80      21.28
N      16.97       3.59      18.98
N      11.88      33.56      19.63
N      13.44      31.90      21.23
N      16.13      31.83      21.27
N      16.97      34.05      18.98
N      17.62       7.44      23.00
N      17.62      30.20      23.00
N      11.83       4.08      33.48
N      16.01       5.86      31.77
N      13.32       5.83      31.85
N      17.57       7.47      30.10
N      12.47       8.13      29.65
N      11.83      33.56      33.48
N      17.57      30.17      30.10
N      16.01      31.78      31.77
N      13.32      31.81      31.85
N      12.48      29.50      29.66
N      23.76      13.61      21.23
N      21.07      13.54      21.27
N      25.32      15.27      19.63
N      20.22      15.75      18.97
N      25.31      22.37      19.63
N      23.76      24.03      21.23
N      21.07      24.09      21.28
N      20.22      21.88      18.98
N      19.57      11.91      23.00
N      19.57      25.73      23.00
N      19.63      11.88      30.10
N      21.18      13.49      31.77
N      23.87      13.52      31.85
N      24.72      11.21      29.66
N      25.37      15.27      33.48
N      25.36      22.37      33.48
N      19.62      25.76      30.10
N      21.18      24.15      31.77
N      23.87      24.12      31.85
N      24.72      26.42      29.65
N       2.23      11.88       4.73
N       0.68      13.49       3.06
N      28.81      13.52       2.98
N      27.96      11.22       5.19
N      27.32      15.27       1.36
N      27.31      22.37       1.36
N       2.23      25.76       4.73
N       0.67      24.15       3.06
N      28.81      24.12       2.98
N      27.96      26.43       5.18
N       2.28      11.91      11.83
N      28.92      13.61      13.60
N       0.79      13.54      13.56
N       2.28      25.73      11.83
N      28.92      24.03      13.60
N       0.79      24.10      13.56
N      27.37      15.27      15.21
N       1.63      15.75      15.86
N      27.37      22.37      15.21
N       1.63      21.89      15.86
N      10.03       4.08       1.36
N       5.84       5.86       3.06
N       8.53       5.83       2.98
N       4.28       7.46       4.73
N       9.38       8.14       5.18
N      10.02      33.56       1.36
N       4.28      30.17       4.73
N       5.84      31.78       3.06
N       8.53      31.81       2.99
N       9.38      29.51       5.19
N       8.42       5.74      13.60
N       5.73       5.80      13.56
N       4.23       7.44      11.83
N       4.23      30.20      11.83
N       8.42      31.90      13.60
N       5.73      31.83      13.56
N       9.98       4.08      15.21
N       4.88       3.59      15.86
N       9.97      33.56      15.21
N       4.88      34.05      15.86
