40

Eu       1.43       6.01      16.54
Eu      -0.59       8.53      18.99
Eu       3.17       9.47      18.06
Eu       5.07       6.90      15.61
C       1.64       9.82      21.19
C      -2.31      11.62      19.37
C       4.16       4.66      18.10
C       3.05       4.02      18.92
C       0.76       3.77      19.17
C      -3.28       6.92      20.40
C      -2.14       6.27      21.16
C       0.13       6.21      21.57
C       2.86       5.62      13.34
C      -0.60       3.90      15.15
C       0.44      10.77      16.41
C       1.56      11.44      15.60
C       3.84      11.71      15.35
C       0.32       8.53      14.18
C      -0.83       9.20      13.41
C       4.35       9.27      12.98
N       1.80       4.33      18.53
N      -0.90       6.71      20.86
N       2.80      11.15      15.99
N       5.38       8.77      13.70
O       0.64       9.04      21.09
O       2.53      10.06      20.35
O      -1.39      10.78      19.62
O       4.32      11.60      18.41
O       3.78       5.22      16.99
O      -2.94       7.89      19.61
O      -0.78       6.58      17.36
O       1.61       7.65      18.29
O       3.85       6.41      13.48
O       1.97       5.38      14.21
O       5.90       4.70      14.88
O       0.21       3.96      16.11
O       0.83      10.14      17.46
O      -0.02       7.63      15.04
O       5.32       8.72      17.22
O       2.96       7.83      16.38
