900

H      45.75      22.90      23.80
H      48.02      23.30      23.28
H      46.51      23.94      27.82
H      48.78      24.36      27.28
H      51.57      24.10      27.24
H      52.68      22.17      28.09
H      51.43      19.97      24.72
H      50.34      21.90      23.86
H      52.23      23.87      23.17
H      52.66      24.58      20.95
H      48.97      26.62      20.91
H      48.54      25.90      23.10
H      48.42      26.58      25.57
H      52.52      25.63      25.27
H      53.06      27.89      25.74
H      48.96      28.81      26.06
H      52.34      18.83      26.68
H      44.28      23.08      27.13
H      51.97      25.80      18.94
H      52.29      30.16      26.52
H      45.75      42.70      26.68
H      48.02      42.04      26.60
H      46.51      45.66      23.77
H      48.78      44.98      23.68
H      51.57      45.07      23.93
H      52.68      46.77      25.17
H      51.43      44.95      28.76
H      50.34      43.25      27.52
H      52.23      41.66      26.16
H      52.66      39.39      26.65
H      48.97      38.33      24.91
H      48.54      40.59      24.43
H      48.42      42.39      22.61
H      52.52      42.60      23.59
H      53.06      41.88      21.39
H      48.96      41.70      20.44
H      52.35      47.23      28.77
H      44.29      45.49      24.86
H      51.97      37.04      26.60
H      52.29      41.41      19.04
H      45.75      35.29       8.10
H      48.02      35.55       8.70
H      46.51      31.29       6.99
H      48.78      31.55       7.62
H      51.57      31.72       7.41
H      52.68      31.95       5.32
H      51.43      35.96       5.11
H      50.34      35.74       7.20
H      52.23      35.36       9.25
H      52.66      36.91      10.98
H      48.97      35.94      12.77
H      48.54      34.40      11.04
H      48.42      31.92      10.40
H      52.52      32.66       9.73
H      53.06      31.12      11.45
H      48.96      30.38      12.09
H      52.34      34.84       3.13
H      44.28      32.32       6.59
H      51.97      38.05      13.04
H      52.29      29.31      13.03
H      17.47      11.91      33.99
H      19.74      11.51      34.51
H      18.23      10.88      29.97
H      20.50      10.45      30.50
H      23.29      10.72      30.55
H      24.40      12.64      29.70
H      23.15      14.84      33.07
H      22.06      12.91      33.93
H      23.95      10.95      34.62
H      24.38      10.23      36.84
H      20.69       8.19      36.88
H      20.26       8.91      34.68
H      20.14       8.24      32.21
H      24.23       9.18      32.52
H      24.78       6.92      32.05
H      20.68       6.00      31.72
H      24.07      15.98      31.11
H      16.01      11.74      30.66
H      23.69       9.01      38.85
H      24.01       4.65      31.28
H      17.47      -7.88      31.11
H      19.74      -7.23      31.19
H      18.23     -10.85      34.01
H      20.50     -10.17      34.11
H      23.29     -10.26      33.86
H      24.40     -11.96      32.62
H      23.15     -10.14      29.03
H      22.06      -8.44      30.27
H      23.95      -6.85      31.62
H      24.38      -4.58      31.14
H      20.69      -3.51      32.88
H      20.26      -5.78      33.36
H      20.14      -7.58      35.18
H      24.23      -7.79      34.20
H      24.78      -7.07      36.39
H      20.68      -6.89      37.35
H      24.06     -12.42      29.02
H      16.00     -10.68      32.92
H      23.69      -2.22      31.18
H      24.01      -6.60      38.75
H      17.47      -0.48      49.69
H      19.74      -0.74      49.08
H      18.22       3.52      50.81
H      20.50       3.26      50.17
H      23.29       3.09      50.37
H      24.40       2.87      52.46
H      23.15      -1.15      52.68
H      22.06      -0.93      50.59
H      23.95      -0.55      48.54
H      24.38      -2.11      46.81
H      20.68      -1.13      45.02
H      20.26       0.41      46.74
H      20.14       2.89      47.39
H      24.23       2.15      48.06
H      24.78       3.69      46.34
H      20.68       4.43      45.70
H      24.06      -0.02      54.66
H      16.00       2.49      51.20
H      23.69      -3.24      44.75
H      24.01       5.50      44.76
H       7.70      -9.46      34.08
H       5.39      -9.25      34.55
H       7.01      -8.24      30.10
H       4.70      -8.01      30.58
H       1.95      -8.40      30.56
H       0.76     -10.29      29.75
H       1.85     -12.45      33.21
H       3.02     -10.56      34.02
H       1.16      -8.53      34.63
H       0.71      -7.79      36.83
H       4.49      -5.92      36.97
H       4.93      -6.66      34.78
H       5.01      -5.87      32.39
H       0.92      -6.88      32.49
H       0.36      -4.62      32.01
H       4.46      -3.64      31.90
H       0.46     -13.51      31.57
H       9.27      -8.15      31.06
H       1.42      -6.63      38.88
H       1.12      -2.33      31.32
H       7.70      10.12      31.13
H       5.39       9.62      31.08
H       7.01      12.96      34.18
H       4.70      12.43      34.15
H       1.95      12.64      33.81
H       0.76      14.29      32.58
H       1.84      12.37      28.99
H       3.02      10.73      30.21
H       1.15       9.19      31.67
H       0.71       6.91      31.21
H       4.49       5.85      32.75
H       4.93       8.11      33.21
H       5.01       9.78      35.09
H       0.92      10.21      34.17
H       0.36       9.50      36.36
H       4.46       9.10      37.27
H       0.46      14.32      28.88
H       9.27      12.09      33.78
H       1.42       4.56      31.18
H       1.13       8.95      38.69
H       7.70       2.89      49.57
H       5.39       3.18      49.16
H       7.01      -1.17      50.50
H       4.70      -0.88      50.06
H       1.95      -0.69      50.41
H       0.76      -0.45      52.45
H       1.84       3.62      52.59
H       3.02       3.38      50.55
H       1.16       2.89      48.49
H       0.71       4.43      46.75
H       4.49       3.62      45.06
H       4.93       2.09      46.79
H       5.01      -0.38      47.30
H       0.92       0.21      48.13
H       0.36      -1.33      46.41
H       4.46      -1.91      45.62
H       0.45       2.74      54.33
H       9.27      -0.39      49.95
H       1.42       5.63      44.72
H       1.13      -3.07      44.77
H      35.99      44.28      23.71
H      33.67      44.07      23.24
H      35.29      43.05      27.69
H      32.98      42.82      27.21
H      30.23      43.22      27.22
H      29.04      45.11      28.04
H      30.13      47.26      24.58
H      31.30      45.37      23.77
H      29.44      43.34      23.16
H      28.99      42.61      20.96
H      32.77      40.74      20.81
H      33.21      41.47      23.00
H      33.29      40.68      25.39
H      29.20      41.69      25.30
H      28.64      39.43      25.77
H      32.74      38.45      25.88
H      28.74      48.32      26.21
H      37.55      42.97      26.73
H      29.70      41.45      18.91
H      29.40      37.14      26.46
H      35.98      24.69      26.65
H      33.67      25.19      26.71
H      35.29      21.85      23.61
H      32.98      22.38      23.64
H      30.23      22.17      23.98
H      29.04      20.52      25.21
H      30.13      22.44      28.80
H      31.30      24.08      27.57
H      29.43      25.63      26.11
H      28.98      27.90      26.58
H      32.77      28.96      25.04
H      33.21      26.70      24.58
H      33.29      25.02      22.70
H      29.20      24.60      23.62
H      28.64      25.32      21.43
H      32.74      25.71      20.52
H      28.74      20.49      28.91
H      37.55      22.72      24.01
H      29.70      30.26      26.60
H      29.40      25.87      19.10
H      35.98      31.93       8.23
H      33.67      31.63       8.64
H      35.29      35.98       7.28
H      32.98      35.69       7.72
H      30.23      35.50       7.38
H      29.03      35.26       5.34
H      30.13      31.19       5.20
H      31.30      31.44       7.23
H      29.44      31.92       9.30
H      28.99      30.37      11.03
H      32.76      31.20      12.73
H      33.20      32.73      11.01
H      33.29      35.20      10.48
H      29.20      34.59       9.67
H      28.64      36.13      11.38
H      32.74      36.74      12.17
H      28.74      32.08       3.46
H      37.55      35.20       7.84
H      29.70      29.19      13.06
H      29.40      37.88      13.02
H      52.47      27.84      14.97
H      47.66      29.56      17.57
H      48.64      29.26      19.02
H      47.75      27.92      18.26
H      52.47      32.58      26.82
H      47.66      33.97      24.03
H      48.64      35.37      23.56
H      47.75      35.38      25.10
H      52.47      40.47      16.79
H      47.66      37.36      16.98
H      48.64      36.25      16.00
H      47.75      37.58      15.22
H      24.18       6.98      42.82
H      19.38       5.25      40.21
H      20.36       5.55      38.77
H      19.47       6.88      39.53
H      24.18       2.23      30.96
H      19.38       0.84      33.76
H      20.36      -0.56      34.23
H      19.47      -0.57      32.69
H      24.18      -5.66      41.00
H      19.37      -2.55      40.81
H      20.35      -1.44      41.79
H      19.47      -2.77      42.57
H       0.93      -4.55      42.83
H       5.75      -2.89      40.22
H       4.77      -3.20      38.78
H       5.65      -4.53      39.56
H       0.92       0.09      31.01
H       5.75       1.52      33.75
H       4.77       2.93      34.21
H       5.65       2.92      32.66
H       0.93       8.01      40.94
H       5.75       4.91      40.81
H       4.77       3.82      41.80
H       5.65       5.16      42.56
H      29.21      39.36      14.96
H      34.03      37.70      17.57
H      33.05      38.01      19.01
H      33.93      39.34      18.23
H      29.21      34.72      26.77
H      34.03      33.29      24.02
H      33.05      31.89      23.57
H      33.93      31.90      25.11
H      29.21      26.81      16.84
H      34.03      29.90      16.98
H      33.05      31.00      16.00
H      33.93      29.66      15.23
H      39.89      23.19      27.72
H      41.20      23.78      22.17
H      42.63      22.84      22.65
H      42.61      24.61      22.87
H      39.89      45.94      24.47
H      41.20      40.85      26.74
H      42.63      41.74      27.31
H      42.61      41.04      25.67
H      39.89      31.76       6.39
H      41.20      36.27       9.68
H      42.63      36.32       8.62
H      42.61      35.25      10.04
H      11.61      11.63      30.07
H      12.92      11.02      35.62
H      14.35      11.96      35.14
H      14.33      10.20      34.92
H      11.61     -11.13      33.31
H      12.92      -6.03      31.05
H      14.35      -6.92      30.48
H      14.33      -6.22      32.12
H      11.61       3.05      51.40
H      12.92      -1.45      48.11
H      14.35      -1.50      49.17
H      14.33      -0.43      47.75
H      55.25      17.60      31.40
H      55.53      16.55      25.80
H      55.32      18.30      25.72
H      53.90      17.23      25.79
H      55.25     -12.97      27.48
H      55.54     -17.30      31.19
H      55.32      46.65      29.71
H      53.91     -17.64      30.60
H      55.25      -1.08      55.91
H      55.53      36.74       1.60
H      55.32      35.94       3.16
H      53.90      36.41       2.19
H      26.97      17.21      26.39
H      27.26      18.26      31.99
H      27.04      16.51      32.07
H      25.63      17.58      32.00
H      26.97     -17.11      30.31
H      27.25     -12.79      26.60
H      27.04     -11.84      28.08
H      25.62     -12.44      27.19
H      26.96      35.90       1.88
H      27.26      -1.93      56.18
H      27.04      -1.12      54.63
H      25.63      -1.60      55.59
C      51.07      28.58      25.97
C      52.08      27.61      25.77
C      51.75      26.27      25.50
C      50.41      25.81      25.46
C      49.41      26.80      25.68
C      49.73      28.14      25.94
C      50.07      24.43      24.87
C      50.29      24.72      23.37
C      49.40      25.57      22.66
C      49.66      26.01      21.35
C      50.85      25.66      20.68
C      51.76      24.84      21.38
C      51.50      24.39      22.69
C      50.89      23.25      25.41
C      48.64      23.98      25.20
C      47.72      23.47      24.24
C      46.37      23.22      24.55
C      45.88      23.43      25.86
C      46.81      23.80      26.86
C      48.16      24.04      26.54
C      51.58      23.26      26.66
C      52.23      22.11      27.17
C      52.20      20.87      26.48
C      51.50      20.85      25.25
C      50.86      21.99      24.74
C      44.53      23.27      26.19
C      51.40      29.93      26.14
C      51.16      26.14      19.40
C      52.75      19.68      26.99
C      51.07      41.73      20.68
C      52.08      42.04      21.62
C      51.75      42.48      22.92
C      50.41      42.68      23.34
C      49.41      42.38      22.37
C      49.73      41.93      21.07
C      50.07      42.85      24.83
C      50.29      41.41      25.32
C      49.40      40.37      24.94
C      49.66      39.02      25.21
C      50.85      38.61      25.85
C      51.77      39.63      26.22
C      51.50      40.99      25.94
C      50.89      43.92      25.58
C      48.64      43.37      25.05
C      47.72      42.79      25.98
C      46.37      43.19      26.03
C      45.88      44.22      25.20
C      46.81      44.89      24.38
C      48.16      44.49      24.32
C      51.58      44.99      24.95
C      52.23      46.01      25.68
C      52.20      46.03      27.10
C      51.50      44.98      27.74
C      50.86      43.96      27.00
C      44.53      44.58      25.17
C      51.40      41.20      19.43
C      51.16      37.27      26.08
C      52.75      47.07      27.87
C      51.07      30.58      11.94
C      52.08      31.24      11.20
C      51.75      32.14      10.16
C      50.41      32.41       9.79
C      49.41      31.72      10.54
C      49.73      30.82      11.57
C      50.07      33.61       8.89
C      50.29      34.75       9.89
C      49.40      34.95      10.98
C      49.66      35.86      12.02
C      50.85      36.61      12.05
C      51.77      36.42      10.99
C      51.50      35.51       9.95
C      50.89      33.73       7.59
C      48.64      33.54       8.34
C      47.72      34.63       8.37
C      46.37      34.49       8.00
C      45.88      33.25       7.52
C      46.81      32.20       7.35
C      48.16      32.35       7.72
C      51.57      32.64       6.98
C      52.23      32.77       5.73
C      52.20      33.99       5.00
C      51.50      35.07       5.59
C      50.86      34.94       6.84
C      44.53      33.04       7.23
C      51.40      29.76      13.02
C      51.16      37.48      13.10
C      52.75      34.14       3.72
C      22.79       6.23      31.82
C      23.80       7.20      32.03
C      23.47       8.55      32.29
C      22.12       9.01      32.33
C      21.13       8.01      32.10
C      21.45       6.67      31.84
C      21.79      10.39      32.92
C      22.01      10.09      34.42
C      21.12       9.24      35.13
C      21.37       8.80      36.44
C      22.57       9.15      37.11
C      23.48       9.98      36.41
C      23.22      10.42      35.10
C      22.61      11.57      32.38
C      20.36      10.83      32.59
C      19.44      11.35      33.55
C      18.09      11.59      33.24
C      17.60      11.39      31.93
C      18.53      11.02      30.93
C      19.88      10.77      31.25
C      23.30      11.56      31.13
C      23.95      12.70      30.62
C      23.92      13.94      31.31
C      23.22      13.97      32.54
C      22.58      12.82      33.05
C      16.25      11.55      31.60
C      23.12       4.89      31.65
C      22.88       8.67      38.39
C      24.47      15.13      30.80
C      22.79      -6.92      37.11
C      23.80      -7.23      36.17
C      23.47      -7.67      34.87
C      22.12      -7.86      34.45
C      21.13      -7.56      35.42
C      21.45      -7.12      36.72
C      21.79      -8.04      32.96
C      22.01      -6.60      32.47
C      21.12      -5.56      32.85
C      21.37      -4.20      32.58
C      22.57      -3.80      31.94
C      23.48      -4.82      31.57
C      23.22      -6.18      31.84
C      22.61      -9.10      32.21
C      20.36      -8.55      32.74
C      19.44      -7.98      31.81
C      18.09      -8.37      31.75
C      17.60      -9.40      32.59
C      18.53     -10.08      33.41
C      19.88      -9.68      33.46
C      23.30     -10.18      32.84
C      23.95     -11.20      32.11
C      23.92     -11.22      30.69
C      23.22     -10.17      30.05
C      22.58      -9.15      30.79
C      16.25      -9.76      32.61
C      23.12      -6.39      38.36
C      22.88      -2.45      31.71
C      24.47     -12.26      29.92
C      22.79       4.23      45.85
C      23.80       3.57      46.59
C      23.47       2.67      47.62
C      22.13       2.40      48.00
C      21.13       3.10      47.26
C      21.45       3.99      46.22
C      21.79       1.20      48.90
C      22.01       0.06      47.90
C      21.12      -0.14      46.81
C      21.37      -1.05      45.77
C      22.57      -1.80      45.74
C      23.48      -1.61      46.80
C      23.22      -0.70      47.84
C      22.61       1.08      50.19
C      20.36       1.27      49.45
C      19.44       0.18      49.42
C      18.09       0.33      49.79
C      17.60       1.56      50.27
C      18.53       2.61      50.44
C      19.88       2.46      50.07
C      23.29       2.17      50.81
C      23.95       2.04      52.06
C      23.92       0.82      52.79
C      23.22      -0.25      52.19
C      22.58      -0.12      50.94
C      16.25       1.77      50.56
C      23.12       5.05      44.77
C      22.88      -2.67      44.69
C      24.47       0.67      54.07
C       2.35      -3.89      31.89
C       1.35      -4.88      32.04
C       1.68      -6.22      32.31
C       3.03      -6.67      32.40
C       4.02      -5.66      32.24
C       3.70      -4.32      31.98
C       3.37      -8.05      32.98
C       3.14      -7.76      34.47
C       4.05      -6.96      35.21
C       3.78      -6.50      36.51
C       2.55      -6.80      37.15
C       1.62      -7.58      36.43
C       1.90      -8.04      35.12
C       2.55      -9.23      32.43
C       4.80      -8.49      32.64
C       5.71      -9.04      33.60
C       7.08      -9.18      33.32
C       7.61      -8.84      32.05
C       6.68      -8.48      31.04
C       5.31      -8.35      31.32
C       1.91      -9.23      31.16
C       1.21     -10.36      30.67
C       1.15     -11.57      31.40
C       1.83     -11.59      32.64
C       2.53     -10.47      33.13
C       8.97      -8.74      31.80
C       2.01      -2.55      31.71
C       2.24      -6.31      38.42
C       0.47     -12.72      30.96
C       2.35       9.24      37.05
C       1.35       9.60      36.12
C       1.68      10.05      34.82
C       3.03      10.18      34.39
C       4.02       9.81      35.35
C       3.70       9.37      36.64
C       3.37      10.37      32.90
C       3.14       8.94      32.41
C       4.05       7.90      32.74
C       3.78       6.54      32.48
C       2.56       6.14      31.90
C       1.62       7.15      31.59
C       1.90       8.51      31.85
C       2.55      11.44      32.16
C       4.80      10.88      32.69
C       5.71      10.33      31.74
C       7.08      10.64      31.76
C       7.61      11.57      32.68
C       6.68      12.26      33.50
C       5.31      11.95      33.48
C       1.91      12.54      32.79
C       1.21      13.53      32.06
C       1.15      13.50      30.65
C       1.83      12.44      30.01
C       2.53      11.45      30.74
C       8.97      11.74      32.89
C       2.01       8.72      38.30
C       2.24       4.79      31.69
C       0.47      14.45      29.87
C       2.35      -1.80      45.84
C       1.35      -1.18      46.62
C       1.68      -0.27      47.65
C       3.03       0.03      47.99
C       4.02      -0.61      47.19
C       3.70      -1.51      46.16
C       3.37       1.23      48.90
C       3.14       2.37      47.90
C       4.05       2.61      46.84
C       3.78       3.51      45.79
C       2.55       4.21      45.73
C       1.62       3.98      46.77
C       1.90       3.07      47.81
C       2.55       1.34      50.19
C       4.80       1.16      49.45
C       5.71       2.25      49.44
C       7.08       2.09      49.70
C       7.60       0.82      50.05
C       6.68      -0.24      50.24
C       5.31      -0.06      49.98
C       1.91       0.24      50.83
C       1.21       0.38      52.05
C       1.14       1.62      52.73
C       1.83       2.70      52.14
C       2.53       2.56      50.92
C       8.97       0.56      50.09
C       2.01      -2.62      44.77
C       2.24       5.07      44.67
C       0.46       1.82      53.95
C      30.63      38.71      25.90
C      29.63      39.69      25.75
C      29.96      41.04      25.48
C      31.31      41.48      25.39
C      32.30      40.47      25.55
C      31.98      39.13      25.81
C      31.65      42.87      24.81
C      31.42      42.57      23.32
C      32.33      41.77      22.58
C      32.06      41.32      21.28
C      30.84      41.61      20.64
C      29.90      42.39      21.36
C      30.18      42.85      22.67
C      30.83      44.04      25.36
C      33.08      43.30      25.14
C      33.99      43.85      24.19
C      35.36      43.99      24.47
C      35.89      43.66      25.74
C      34.96      43.29      26.75
C      33.59      43.16      26.46
C      30.19      44.04      26.63
C      29.49      45.17      27.12
C      29.43      46.38      26.39
C      30.11      46.41      25.15
C      30.81      45.28      24.66
C      37.26      43.56      25.99
C      30.29      37.37      26.07
C      30.52      41.12      19.37
C      28.75      47.54      26.82
C      30.63      25.57      20.74
C      29.63      25.21      21.67
C      29.96      24.77      22.96
C      31.31      24.63      23.40
C      32.30      25.00      22.44
C      31.98      25.44      21.15
C      31.65      24.44      24.88
C      31.42      25.87      25.38
C      32.33      26.92      25.05
C      32.06      28.27      25.31
C      30.83      28.68      25.88
C      29.90      27.66      26.20
C      30.18      26.30      25.94
C      30.83      23.37      25.63
C      33.08      23.93      25.10
C      33.99      24.48      26.04
C      35.36      24.17      26.03
C      35.88      23.24      25.10
C      34.96      22.55      24.29
C      33.59      22.86      24.31
C      30.19      22.27      25.00
C      29.49      21.28      25.73
C      29.43      21.31      27.14
C      30.11      22.37      27.78
C      30.81      23.36      27.05
C      37.25      23.07      24.90
C      30.29      26.09      19.49
C      30.52      30.02      26.09
C      28.75      20.36      27.92
C      30.63      36.61      11.94
C      29.63      35.99      11.17
C      29.96      35.08      10.14
C      31.31      34.78       9.80
C      32.30      35.43      10.59
C      31.98      36.33      11.62
C      31.65      33.59       8.89
C      31.41      32.44       9.89
C      32.33      32.21      10.95
C      32.06      31.31      12.00
C      30.83      30.60      12.06
C      29.90      30.83      11.02
C      30.18      31.74       9.97
C      30.83      33.48       7.59
C      33.08      33.66       8.34
C      33.99      32.56       8.35
C      35.36      32.73       8.09
C      35.88      33.99       7.74
C      34.96      35.05       7.55
C      33.59      34.87       7.80
C      30.18      34.57       6.96
C      29.49      34.44       5.73
C      29.43      33.20       5.05
C      30.12      32.11       5.65
C      30.81      32.25       6.87
C      37.25      34.26       7.70
C      30.29      37.44      13.02
C      30.52      29.75      13.12
C      28.75      33.00       3.83
C      50.65      28.94      15.16
C      49.50      28.53      17.23
C      50.51      27.62      17.63
C      51.66      28.04      15.56
C      48.32      28.84      18.07
C      50.65      32.19      25.77
C      49.50      34.19      25.09
C      50.51      34.99      25.68
C      51.66      32.99      26.35
C      48.32      34.76      24.41
C      50.65      39.75      17.65
C      49.50      38.17      16.26
C      50.51      38.28      15.28
C      51.66      39.85      16.67
C      48.32      37.29      16.11
C      22.37       5.87      42.63
C      21.21       6.28      40.56
C      22.23       7.19      40.16
C      23.38       6.77      42.22
C      20.04       5.97      39.72
C      22.37       2.62      32.02
C      21.22       0.62      32.70
C      22.23      -0.17      32.11
C      23.38       1.82      31.44
C      20.04       0.05      33.38
C      22.37      -4.94      40.14
C      21.21      -3.36      41.53
C      22.23      -3.47      42.51
C      23.38      -5.04      41.12
C      20.03      -2.48      41.68
C       2.75      -3.46      42.63
C       3.91      -3.90      40.57
C       2.89      -4.80      40.18
C       1.73      -4.36      42.23
C       5.09      -3.61      39.73
C       2.75      -0.28      32.05
C       3.91       1.72      32.70
C       2.89       2.51      32.12
C       1.73       0.51      31.47
C       5.09       2.30      33.37
C       2.74       7.29      40.10
C       3.90       5.72      41.51
C       2.88       5.84      42.49
C       1.73       7.40      41.08
C       5.09       4.85      41.68
C      31.03      38.27      15.16
C      32.19      38.71      17.22
C      31.17      39.62      17.61
C      30.01      39.17      15.55
C      33.37      38.42      18.05
C      31.02      35.09      25.73
C      32.18      33.09      25.08
C      31.16      32.30      25.67
C      30.01      34.30      26.31
C      33.37      32.51      24.41
C      31.02      27.53      17.69
C      32.18      29.09      16.28
C      31.16      28.98      15.30
C      30.01      27.42      16.71
C      33.37      29.96      16.12
C      39.48      23.37      25.64
C      41.45      23.53      24.27
C      42.27      23.40      25.42
C      40.30      23.27      26.78
C      42.00      23.70      22.91
C      39.48      44.06      25.36
C      41.45      42.79      25.91
C      42.27      43.85      25.44
C      40.30      45.09      24.87
C      42.00      41.53      26.44
C      39.48      33.47       7.58
C      41.45      34.57       8.41
C      42.27      33.64       7.72
C      40.30      32.52       6.93
C      42.00      35.66       9.23
C      11.20      11.45      32.15
C      13.17      11.28      33.52
C      13.99      11.41      32.36
C      12.02      11.55      31.01
C      13.72      11.11      34.88
C      11.20      -9.25      32.43
C      13.17      -7.98      31.88
C      13.99      -9.04      32.35
C      12.02     -10.28      32.91
C      13.72      -6.71      31.35
C      11.20       1.35      50.21
C      13.17       0.24      49.38
C      13.99       1.18      50.07
C      12.02       2.29      50.86
C      13.72      -0.85      48.55
C      55.74      16.47      29.67
C      54.93      17.47      27.62
C      54.34      18.54      28.35
C      55.17      17.54      30.38
C      54.92      17.38      26.15
C      55.74     -13.90      29.32
C      54.94     -16.18      29.47
C      54.34     -16.08      28.18
C      55.17     -13.82      28.04
C      54.92     -17.41      30.29
C      55.74       0.98      55.79
C      54.93      34.70       1.49
C      54.34      33.53       2.04
C      55.17      32.27       0.16
C      54.92      36.02       2.15
C      27.46      18.35      28.12
C      26.66      17.34      30.17
C      26.06      16.27      29.44
C      26.89      17.27      27.41
C      26.65      17.43      31.64
C      27.46     -16.18      28.47
C      26.65     -13.91      28.31
C      26.06     -14.01      29.60
C      26.89     -16.26      29.75
C      26.64     -12.68      27.50
C      27.46      33.83       2.00
C      26.65      32.56       0.10
C      26.06       1.28      55.75
C      26.88      34.99       1.43
C      26.65      -1.21      55.64
N      49.62      29.14      16.02
N      51.55      27.42      16.77
N      50.60      29.61      14.02
N      50.43      27.02      18.81
N      49.62      32.84      25.17
N      51.55      34.35      26.28
N      50.60      30.87      25.76
N      50.43      36.31      25.62
N      49.62      38.92      17.39
N      51.55      39.12      15.53
N      50.60      40.41      18.81
N      50.43      37.56      14.16
N      21.34       5.67      41.77
N      23.27       7.39      41.02
N      22.32       5.20      43.77
N      22.15       7.79      38.98
N      21.34       1.98      32.62
N      23.27       0.47      31.51
N      22.32       3.95      32.03
N      22.15      -1.50      32.17
N      21.34      -4.11      40.40
N      23.27      -4.31      42.26
N      22.32      -5.60      38.98
N      22.15      -2.75      43.63
N       3.78      -3.28      41.77
N       1.84      -4.99      41.04
N       2.80      -2.78      43.77
N       2.97      -5.43      39.01
N       3.78       0.37      32.64
N       1.84       1.87      31.53
N       2.80      -1.61      32.08
N       2.97       3.84      32.16
N       3.78       6.46      40.37
N       1.84       6.67      42.22
N       2.80       7.93      38.94
N       2.97       5.14      43.61
N      32.06      38.09      16.01
N      30.12      39.81      16.75
N      31.08      37.59      14.02
N      31.25      40.24      18.78
N      32.06      34.44      25.14
N      30.12      32.95      26.26
N      31.08      36.42      25.70
N      31.25      30.97      25.62
N      32.06      28.36      17.42
N      30.12      28.14      15.57
N      31.08      26.88      18.85
N      31.25      29.68      14.18
N      40.10      23.50      24.44
N      41.65      23.29      26.63
N      38.15      23.40      25.76
N      43.60      23.45      25.32
N      40.10      42.95      25.84
N      41.65      44.95      24.93
N      38.15      44.14      25.27
N      43.60      43.74      25.45
N      40.10      34.44       8.30
N      41.65      32.65       7.02
N      38.15      33.34       7.56
N      43.60      33.71       7.81
N      11.82      11.31      33.35
N      13.37      11.53      31.16
N       9.87      11.41      32.03
N      15.32      11.37      32.47
N      11.82      -8.13      31.95
N      13.37     -10.14      32.85
N       9.87      -9.33      32.52
N      15.32      -8.92      32.33
N      11.82       0.37      49.49
N      13.37       2.16      50.77
N       9.87       1.47      50.23
N      15.32       1.10      49.98
N      55.60      16.50      28.32
N      54.51      18.52      29.71
N      56.41      15.50      30.32
N      53.73      19.61      27.83
N      55.60     -15.09      29.97
N      54.51     -14.90      27.52
N      56.41     -12.85      29.83
N      53.73      47.83      27.52
N      55.60      34.58       0.30
N      54.51      32.37       1.35
N      56.41       0.90      54.63
N      53.73      33.45       3.24
N      27.32      18.31      29.47
N      26.23      16.29      28.08
N      28.13      19.31      27.47
N      25.45      15.20      29.96
N      27.32     -14.99      27.82
N      26.23     -15.19      30.27
N      28.13      47.66      27.96
N      25.45     -13.01      30.27
N      27.32      32.68       1.29
N      26.23      34.89       0.24
N      28.13      33.91       3.16
N      25.45       1.36      54.55
