246

Cd       5.24       4.46       9.40
Cd       6.46       2.34      12.39
Cd       7.71       0.28      15.46
Cd      -1.90       8.39       7.37
Cd      -3.13      10.51       4.38
Cd      -4.37      12.56       1.32
H       2.87       6.04       8.03
H       1.43       6.01       6.00
H       3.54       2.42       4.78
H       4.89       2.61       6.89
H       1.88       3.20       3.36
H       0.10       5.55       4.30
H      -1.47       6.26       2.50
H      -2.94       5.58       0.59
H      14.79       1.88       0.31
H       0.39       2.36       2.22
H       9.41       3.11      11.05
H      -4.43       1.76      11.38
H      10.09      -1.03       8.40
H       8.03       0.32       8.08
H      -2.46       1.22      10.35
H      -8.31      13.01      10.24
H       3.33      13.18       9.72
H      -0.52       1.86       9.38
H       1.68       2.98       9.71
H       3.10      -0.44      11.88
H       0.88      -1.53      11.64
H      -8.54      11.25       8.94
H       7.26       8.77       8.78
H       3.34       8.81      10.50
H       3.44      11.27      10.75
H       9.53       6.97       0.14
H       2.81       5.62      16.72
H       1.42       3.10      13.50
H       3.48       1.74      13.70
H       1.62       7.12      15.43
H      -2.65       7.22      15.00
H      -0.52       3.50      14.58
H       1.21       8.90      16.64
H       1.35      11.39      16.65
H      -2.01      11.62      14.01
H      -2.14       9.13      13.95
H      -3.98       6.34      13.60
H      -6.17       5.26      13.27
H      -4.60       1.57      14.79
H      -2.41       2.66      15.20
H       0.47       6.81       8.74
H       1.90       6.84      10.78
H      -0.21      10.43      12.00
H      -1.55      10.24       9.89
H       1.46       9.64      13.41
H       3.23       7.30      12.47
H       4.81       6.59      14.27
H       6.28       7.27      16.18
H     -11.45      10.97      16.47
H       2.95      10.49      14.55
H      -6.07       9.74       5.72
H       7.77      11.08       5.40
H      -6.76      13.88       8.38
H      -4.69      12.52       8.69
H       5.80      11.62       6.43
H      11.65      -0.17       6.53
H       0.01      -0.33       7.06
H       3.86      10.98       7.40
H       1.66       9.87       7.06
H       0.23      13.29       4.89
H       2.45      14.38       5.14
H      11.88       1.60       7.83
H      -3.92       4.07       7.99
H      -0.00       4.04       6.28
H      -0.10       1.57       6.02
H      -6.19       5.88      16.63
H       0.53       7.23       0.06
H       1.92       9.75       3.27
H      -0.14      11.11       3.08
H       1.72       5.73       1.35
H       5.99       5.63       1.78
H       3.86       9.34       2.20
H       2.12       3.94       0.14
H       1.99       1.46       0.12
H       5.35       1.23       2.76
H       5.48       3.71       2.83
H       7.31       6.51       3.18
H       9.51       7.59       3.51
H       7.94      11.28       1.98
H       5.74      10.18       1.58
C       2.98       5.26       7.28
C       2.20       5.24       6.13
C       2.37       4.20       5.19
C       3.37       3.24       5.47
C       4.11       3.33       6.64
C       1.55       4.02       4.01
C       0.44       4.71       3.68
C      -0.40       4.37       2.54
C      -1.36       5.28       2.05
C      -2.16       4.91       0.97
C      -1.14       2.84       0.82
C      -0.31       3.12       1.89
C       7.36       2.62       9.38
C       8.59       1.79       9.56
C       9.57       2.20      10.48
C      10.73       1.45      10.65
C      10.93       0.27       9.91
C       9.94      -0.13       8.99
C       8.79       0.63       8.81
C      12.18      -0.51      10.04
C      -2.49       0.14      10.26
C      -1.29      -0.59      10.32
C      -9.23      13.59      10.20
C       5.45      12.92       9.99
C       4.28      13.68       9.91
C       0.01       0.08      10.49
C       0.26       1.36       9.95
C       1.49       1.98      10.12
C       2.53       1.33      10.81
C       2.30       0.05      11.33
C       1.06      -0.56      11.19
C       3.84       2.01      11.03
C       5.41      11.45       9.86
C       6.48      10.73       9.31
C       6.43       9.34       9.21
C       5.30       8.64       9.65
C       4.22       9.36      10.18
C       4.27      10.74      10.29
C       5.24       7.15       9.59
C       5.52       2.05      15.43
C       4.30       2.90      15.31
C       4.10       4.00      16.16
C       2.95       4.78      16.05
C       1.95       4.45      15.11
C       2.16       3.35      14.26
C       3.32       2.59      14.35
C       0.69       5.22      15.06
C       0.68       6.61      15.27
C      -0.51       7.35      15.20
C      -1.72       6.67      14.96
C      -1.74       5.28      14.72
C      -0.53       4.57      14.77
C      -0.48       8.83      15.30
C       0.50       9.49      16.06
C       0.59      10.88      16.07
C      -0.31      11.65      15.33
C      -1.32      11.01      14.59
C      -1.39       9.62      14.57
C       7.69      -2.43      15.34
C      -3.02       4.60      14.44
C      -4.11       5.30      13.89
C      -5.34       4.70      13.69
C      -5.53       3.34      14.02
C      -4.45       2.62      14.55
C      -3.22       3.23      14.76
C       9.05       2.68      13.74
C       0.36       7.59       9.50
C       1.14       7.61      10.65
C       0.96       8.65      11.58
C      -0.03       9.61      11.30
C      -0.77       9.52      10.13
C       1.78       8.83      12.77
C       2.90       8.14      13.09
C       3.74       8.48      14.24
C       4.69       7.57      14.73
C       5.50       7.93      15.80
C       4.48      10.01      15.96
C       3.65       9.72      14.89
C      -4.02      10.23       7.39
C      -5.25      11.05       7.21
C      -6.23      10.65       6.29
C      -7.39      11.40       6.12
C      -7.60      12.58       6.87
C      -6.60      12.98       7.78
C      -5.45      12.22       7.97
C      -8.85      13.35       6.73
C       5.83      12.71       6.51
C       4.63      13.44       6.45
C      12.57      -0.75       6.58
C      -2.12      -0.08       6.78
C      -0.94      -0.83       6.87
C       3.32      12.76       6.28
C       3.08      11.48       6.82
C       1.85      10.86       6.66
C       0.81      11.51       5.97
C       1.04      12.79       5.44
C       2.28      13.40       5.59
C      -0.50      10.83       5.74
C      -2.07       1.39       6.91
C      -3.14       2.12       7.46
C      -3.09       3.51       7.57
C      -1.96       4.21       7.13
C      -0.88       3.49       6.60
C      -0.93       2.11       6.48
C      -1.90       5.69       7.19
C      -2.18      10.79       1.35
C      -0.96       9.94       1.46
C      -0.77       8.84       0.61
C       0.39       8.07       0.73
C       1.39       8.40       1.66
C       1.18       9.50       2.52
C       0.02      10.25       2.42
C       2.65       7.63       1.72
C       2.66       6.24       1.51
C       3.85       5.50       1.58
C       5.05       6.18       1.81
C       5.08       7.57       2.05
C       3.87       8.27       2.01
C       3.82       4.02       1.48
C       2.84       3.36       0.72
C       2.75       1.97       0.71
C       3.65       1.19       1.45
C       4.65       1.84       2.19
C       4.73       3.23       2.21
C      -4.35      15.28       1.44
C       6.36       8.25       2.33
C       7.45       7.54       2.89
C       8.68       8.15       3.08
C       8.87       9.50       2.75
C       7.79      10.23       2.23
C       6.56       9.61       2.02
C      -5.72      10.17       3.03
N       3.91       4.32       7.54
N      13.83       3.71       0.37
N      -0.58       8.53       9.24
N     -10.49       9.13      16.41
O       7.01       3.38      10.40
O       6.69       2.61       8.32
O       4.80       1.26      11.44
O       3.91       3.27      10.87
O       4.21       6.54      10.06
O       6.22       6.52       9.07
O       5.88       1.36      14.38
O       6.16       1.97      16.51
O       8.73      -1.90      15.86
O       6.74      -1.74      14.83
O       8.10       3.46      13.35
O       8.96       1.42      13.83
O      -3.67       9.47       6.37
O      -3.35      10.24       8.45
O      -1.47      11.58       5.34
O      -0.57       9.57       5.90
O      -0.88       6.30       6.71
O      -2.89       6.32       7.71
O      -2.54      11.48       2.40
O      -2.82      10.88       0.26
O      -5.39      14.75       0.91
O      -3.41      14.58       1.95
O      -4.76       9.39       3.42
O      -5.62      11.43       2.94
