31

Sm       7.79       7.59       3.74
Sm       7.80       5.80      -3.74
O       7.46       8.38      -0.67
O       7.79       7.95      -2.86
Zn       8.19       6.69      -0.00
C       7.74       8.13       7.95
C       7.87       7.82       6.50
C       5.69       8.82       2.48
C       4.93       9.58       1.45
C       7.67       5.27      -7.95
C       7.86       5.58      -6.50
C       5.69       4.57      -2.50
C       4.94       3.81      -1.48
C       9.51       8.82       1.75
C       7.62       4.63       1.90
C       9.52       4.57      -1.75
C       7.59       8.75      -1.89
O       7.56       6.69       6.00
O       8.29       8.77       5.74
O       6.28       9.44       3.43
O       5.82       7.55       2.35
O       7.53       6.71      -5.99
O       8.33       4.64      -5.75
O       6.28       3.96      -3.46
O       5.84       5.84      -2.36
O       9.29       9.35       2.87
O       9.16       7.56       1.56
O       7.49       5.00       0.68
O       7.81       5.43       2.87
O       9.30       4.04      -2.87
O       9.17       5.83      -1.57
