370

Ba       7.08       1.98       7.21
Ba       4.25       4.90       4.71
Ba       2.89       2.26       8.49
Ba       8.16       5.93       5.71
Ba       0.19       2.74       5.33
Ba      -3.16      12.28      17.62
Ba      -0.34       9.36      20.12
Ba       1.03      12.00      16.34
Ba      -4.25       8.33      19.12
Ba       3.72      11.52      19.50
H       5.46       0.16      17.94
H       7.71      -0.07      11.26
H       5.89      11.23      13.26
H      -1.04      14.97       3.62
H       2.07       5.28      20.55
H       1.22      12.84      21.62
H       8.54       1.70       2.63
H       7.17      -0.34       2.68
H       5.96       2.00      16.32
H       1.27       7.93      22.68
H       4.45      13.80      11.10
H       7.81      16.14       4.53
H      -1.11      14.33      20.29
H       4.98       1.17      11.93
H       6.16      11.37       8.97
H       5.51      16.75       7.77
H       5.20       6.85      15.52
H       6.61      16.02       0.37
H       6.25      17.13       2.58
H       5.72      17.01       4.73
H       5.36       7.19       0.14
H       0.94      11.68      23.13
H       1.51      14.70       7.70
H       3.69       6.57      21.37
H       5.43       9.63       2.35
H       1.57      -3.75      20.78
H       3.45       8.71      15.08
H       1.55       8.13      24.70
H       6.10      12.52      11.19
H       7.04      10.34       6.34
H       6.88      -1.89      10.28
H      -0.88      12.48       3.77
H       5.83       4.49      11.20
H       2.29       3.04      19.56
H       5.63      14.50      15.62
H       5.09      15.61       9.51
H       8.15      11.19       4.81
H       5.45      -2.18      17.18
H       5.22      11.84       3.38
H       5.65       2.53       2.03
H       2.91      15.83      16.15
H       4.15       9.95       5.41
H       6.03      13.88       2.17
H       5.98       3.91       0.36
H       3.32      15.98       6.60
H       0.84      -1.41      20.91
H       6.07       8.92       8.84
H       5.09       4.39      15.43
H       4.14      14.30      13.49
H       0.30      -0.38      23.13
H       6.31       9.85      15.08
H       1.80      12.26       8.14
H       4.21       5.36       9.80
H       3.81      11.08       7.34
H       6.75       6.86       8.96
H       5.44       3.21      13.25
H       7.33       8.04       2.34
H       6.44       1.47      13.97
H       1.69       1.24      23.41
H       2.17       1.00      21.00
H      -1.54      14.10       6.89
H      -3.80      14.32      13.57
H      -1.98       3.03      11.57
H       4.95      -0.72      21.21
H       1.85       8.98       4.28
H       2.69       1.42       3.21
H      -4.63      12.56      22.20
H      -3.25      14.60      22.15
H      -2.05      12.26       8.51
H       2.64       6.32       2.15
H      -0.54       0.45      13.73
H      -3.90      -1.88      20.30
H       5.03      -0.07       4.54
H      -1.07      13.09      12.90
H      -2.25       2.88      15.86
H      -1.60      -2.49      17.06
H      -1.28       7.41       9.31
H      -2.69      -1.76      24.46
H      -2.33      -2.87      22.25
H      -1.80      -2.75      20.11
H      -1.44       7.07      24.69
H       2.98       2.58       1.70
H       2.41      -0.45      17.13
H       0.22       7.69       3.46
H      -1.51       4.63      22.48
H       2.35      18.00       4.05
H       0.47       5.54       9.75
H       2.37       6.13       0.13
H      -2.19       1.74      13.64
H      -3.12       3.91      18.49
H      -2.96      16.14      14.55
H       4.79       1.77      21.06
H      -1.91       9.77      13.63
H       1.62      11.22       5.27
H      -1.71      -0.24       9.21
H      -1.18      -1.35      15.32
H      -4.24       3.07      20.02
H      -1.53      16.44       7.65
H      -1.31       2.41      21.45
H      -1.74      11.73      22.80
H       1.01      -1.58       8.68
H      -0.24       4.30      19.42
H      -2.12       0.38      22.66
H      -2.06      10.34      24.47
H       0.60      -1.72      18.23
H       3.08      15.67       3.92
H      -2.16       5.34      15.99
H      -1.18       9.87       9.40
H      -0.22      -0.04      11.34
H       3.62      14.64       1.70
H      -2.40       4.41       9.75
H       2.12       2.00      16.69
H      -0.29       8.90      15.03
H       0.11       3.17      17.49
H      -2.83       7.40      15.87
H      -1.52      11.04      11.58
H      -3.41       6.22      22.49
H      -2.53      12.78      10.86
H       2.22      13.02       1.42
H       1.75      13.25       3.83
C       0.11      12.83      19.30
C       7.33       2.79       4.10
C       4.17      13.71      17.06
C       5.63      -0.08      16.89
C       6.78       0.05      11.82
C       6.26       1.90      10.29
C       4.20       9.92      16.75
C       1.14       3.51      24.73
C       5.91      10.71      12.30
C      -1.84      14.41       4.08
C       2.02       4.40      21.19
C       0.44      13.60      21.61
C       0.25      14.32      22.86
C       3.12       8.62      20.89
C       6.29      10.34       0.49
C       5.85      -3.08      14.67
C       7.55       2.11       2.80
C       6.04       6.26       2.53
C       1.30       5.97      24.56
C       6.45      -2.34      12.38
C       5.77      19.02       1.71
C       5.92       0.97      15.98
C       1.94       7.10      22.46
C       6.47      -0.99      12.82
C       4.59      14.82      11.47
C       1.24      -3.50      24.20
C       7.10      -1.09       6.84
C       4.62      14.27       6.30
C       5.16       4.94       7.89
C       5.51       8.29       5.88
C       7.88      15.06       4.58
C      -0.25      13.69      20.45
C       1.46      -4.13      22.92
C       1.78       4.58      22.58
C       5.97       1.06      11.47
C       6.09      10.78       9.88
C       6.92      12.90       5.32
C       5.55      17.23       6.80
C       5.30       6.34      14.57
C       6.34      17.07       0.41
C       6.14      17.70       1.66
C       5.64      16.49       5.68
C       6.09       7.84       0.62
C       0.83      12.21      24.07
C       5.88      12.15       5.95
C       2.41      14.20       7.37
C       2.94       7.32      21.57
C       5.76      10.51       1.81
C       5.84       9.29      12.27
C       4.53      16.42      13.31
C       1.33      -3.32      21.75
C       4.34       9.22      15.46
C       1.57       3.40      23.38
C       6.55      12.79       0.40
C       5.86      -1.73      15.10
C       0.47      13.59      24.07
C       6.04      11.44      11.14
C       6.05      10.70       6.05
C       6.79       1.34       0.57
C       6.81      14.34       5.20
C       5.06      17.15      11.01
C      -1.75      12.99       4.18
C       5.64       5.02      12.13
C       6.16      -0.67      14.16
C       5.68      15.01       5.72
C       2.14       3.15      20.63
C       4.62      14.64      16.00
C       5.61       8.54      13.45
C       4.95      15.85      10.57
C       8.08      12.27       4.78
C       5.51       7.13      13.40
C       7.20      -0.02       0.52
C       4.73      12.83       6.45
C       5.62      -1.38      16.47
C       5.65      11.75       2.39
C       6.61       2.03       1.85
C       3.87      15.70      15.64
C       5.94       8.62      11.00
C       5.15       9.73       5.78
C       6.08      12.90       1.69
C       0.83      -2.13      24.24
C       1.69       5.87      23.20
C       5.85       7.20      10.94
C       3.42      14.90       6.75
C       5.66       6.44      12.13
C       0.93      -2.00      21.82
C       6.05       9.41       9.81
C       5.25       4.97      14.52
C       4.41      15.09      12.81
C       0.65      -1.41      23.08
C       5.47       9.24      14.73
C       2.57      12.80       7.60
C       5.08       5.61       9.20
C       3.69      12.15       7.15
C       5.95       6.54       9.64
C       5.43       4.30      13.28
C       6.56       7.46       1.82
C       6.19       0.67      14.66
C       1.77       2.12      22.78
C       2.04       1.99      21.44
C       3.81       1.42       5.53
C      -3.42      11.46      20.73
C      -0.25       0.55       7.78
C      -1.72      14.33       7.94
C      -2.87      14.21      13.01
C      -2.34      12.35      14.54
C      -0.29       4.33       8.08
C       2.77      10.75       0.10
C      -2.00       3.54      12.53
C       5.76      -0.15      20.75
C       1.90       9.85       3.64
C       3.47       0.65       3.22
C       3.67      -0.06       1.97
C       0.80       5.64       3.94
C      -2.38       3.91      24.34
C      -1.93      17.33      10.16
C      -3.63      12.14      22.03
C      -2.13       7.99      22.30
C       2.62       8.29       0.27
C      -2.53      16.59      12.45
C      -1.85      -4.77      23.12
C      -2.00      13.29       8.86
C       1.97       7.16       2.37
C      -2.55      15.24      12.01
C      -0.68      -0.56      13.36
C       2.68      17.76       0.63
C      -3.18      15.35      17.99
C      -0.71      -0.01      18.53
C      -1.24       9.31      16.94
C      -1.60       5.97      18.95
C      -3.97      -0.80      20.25
C       4.16       0.57       4.38
C       2.46      18.39       1.91
C       2.13       9.67       2.25
C      -2.05      13.20      13.36
C      -2.17       3.47      14.95
C      -3.00       1.35      19.51
C      -1.64      -2.98      18.03
C      -1.38       7.92      10.26
C      -2.43      -2.81      24.42
C      -2.23      -3.44      23.17
C      -1.72      -2.23      19.15
C      -2.17       6.41      24.21
C       3.08       2.05       0.76
C      -1.96       2.10      18.88
C       1.50       0.06      17.46
C       0.98       6.93       3.26
C      -1.85       3.75      23.02
C      -1.93       4.97      12.56
C      -0.61      -2.17      11.52
C       2.59      17.58       3.08
C      -0.42       5.04       9.37
C       2.35      10.86       1.45
C      -2.63       1.46      24.43
C      -1.94      15.98       9.73
C       3.45       0.66       0.76
C      -2.12       2.82      13.69
C      -2.13       3.56      18.78
C      -2.87      12.91      24.26
C      -2.90      -0.08      19.63
C      -1.15      -2.89      13.83
C       5.66       1.26      20.65
C      -1.73       9.24      12.70
C      -2.24      14.92      10.67
C      -1.76      -0.76      19.12
C       1.78      11.11       4.20
C      -0.70      -0.39       8.83
C      -1.70       5.72      11.38
C      -1.03      -1.59      14.26
C      -4.16       1.99      20.06
C      -1.59       7.13      11.44
C      -3.28      14.27      24.31
C      -0.82       1.43      18.39
C      -1.70      15.64       8.36
C      -1.73       2.51      22.44
C      -2.69      12.23      22.98
C       0.05      -1.45       9.19
C      -2.02       5.64      13.83
C      -1.23       4.52      19.06
C      -2.16       1.35      23.14
C       3.08      16.39       0.60
C       2.23       8.39       1.63
C      -1.93       7.06      13.89
C       0.50      -0.65      18.08
C      -1.74       7.81      12.70
C       2.99      16.26       3.01
C      -2.13       4.85      15.02
C      -1.33       9.29      10.31
C      -0.49      -0.84      12.02
C       3.27      15.67       1.75
C      -1.55       5.01      10.10
C       1.35       1.45      17.23
C      -1.16       8.65      15.63
C       0.22       2.11      17.68
C      -2.03       7.72      15.19
C      -1.51       9.96      11.55
C      -2.64       6.79      23.01
C      -2.27      13.58      10.17
C       2.15      12.14       2.05
C       1.87      12.27       3.39
O       7.45       2.12       9.92
O       8.38       3.13       4.78
O       1.03      11.94      19.40
O       2.22       9.53      20.96
O       6.93      -0.59       8.01
O       6.15       2.99       4.53
O       7.22      -0.42       5.76
O       5.07      13.05      17.68
O       5.23       2.33       9.63
O       4.08       4.41       7.44
O       6.26       4.91       7.23
O       4.20       8.80      20.23
O       4.63       7.44       5.50
O       2.92      13.59      17.34
O       5.22      10.04      17.52
O       5.01       5.65       2.13
O      -0.54      13.01      18.21
O       6.67       5.93       3.62
O       3.05      10.39      17.07
O       6.68       7.99       6.31
O      -3.54      12.14      14.91
O      -4.46      11.13      20.05
O       2.88       2.32       5.43
O       1.70       4.73       3.87
O      -3.01      14.85      16.82
O      -2.24      11.26      20.30
O      -3.30      14.67      19.07
O      -1.15       1.21       7.16
O      -1.31      11.93      15.20
O      -0.16       9.85      17.39
O      -2.34       9.35      17.60
O      -0.29       5.45       4.60
O      -0.71       6.82      19.33
O       0.99       0.66       7.49
O      -1.30       4.21       7.31
O      -1.09       8.60      22.70
O       4.46       1.24       6.62
O      -2.76       8.33      21.22
O       0.87       3.87       7.76
O      -2.77       6.26      18.52
