272

Ba       7.02      15.90      12.45
Ba       7.02      13.35      16.87
Ba       7.02       3.45       6.90
Ba       7.02       6.00       2.48
Ba       7.02       6.90      15.90
Ba       7.02       2.48      13.35
Ba       7.02      12.45       3.45
Ba       7.02      16.87       6.00
Ba       2.44       6.22      16.58
Ba       2.45       3.66      12.18
Ba       2.44      13.13       2.77
Ba       2.45      15.69       7.17
Ba       2.44      16.58      13.13
Ba       2.45      12.18      15.69
Ba       2.44       2.77       6.22
Ba       2.45       7.17       3.66
H       6.08      17.26       0.11
H       6.92      15.78       0.59
H       4.32      15.44       0.69
H       3.96      14.29      18.77
H       4.10      16.93      17.90
H       5.49      16.90      16.80
H       8.37      17.51      18.81
H       7.44      17.28      17.33
H       0.98      15.26      16.42
H       0.75      16.96      16.71
H       8.92      15.08       0.46
H       1.15      15.91      19.10
H       6.08       2.09      19.24
H       6.92       3.57      18.76
H       4.32       3.91      18.66
H       3.96       5.06       0.58
H       4.10       2.42       1.46
H       5.49       2.45       2.55
H       8.37       1.84       0.54
H       7.44       2.07       2.02
H       0.98       4.10       2.93
H       0.75       2.39       2.64
H       8.92       4.27      18.89
H       1.15       3.44       0.25
H       6.08      19.24      17.26
H       6.92      18.76      15.78
H       4.32      18.66      15.44
H       3.96       0.58      14.29
H       4.10       1.46      16.93
H       5.49       2.55      16.90
H       8.37       0.54      17.51
H       7.44       2.02      17.28
H       0.98       2.93      15.26
H       0.75       2.64      16.96
H       8.92      18.89      15.08
H       1.15       0.25      15.91
H       6.08       0.11       2.09
H       6.92       0.59       3.57
H       4.32       0.69       3.91
H       3.96      18.77       5.06
H       4.10      17.90       2.42
H       5.49      16.80       2.45
H       8.37      18.81       1.84
H       7.44      17.33       2.07
H       0.98      16.42       4.10
H       0.75      16.71       2.39
H       8.92       0.46       4.27
H       1.15      19.10       3.44
H       1.46       7.56       9.58
H       2.32       6.09       9.10
H       8.91       5.73       8.99
H       8.53       4.59      10.27
H       8.66       7.21      11.17
H       0.89       7.19      12.26
H       3.75       7.85      10.22
H       2.82       7.60      11.70
H       5.57       5.62      12.60
H       5.32       7.32      12.29
H       4.34       5.41       9.22
H       5.72       6.26       9.93
H       1.46      11.79       9.77
H       2.32      13.26      10.26
H       8.91      13.62      10.36
H       8.53      14.76       9.08
H       8.66      12.14       8.18
H       0.89      12.17       7.09
H       3.75      11.51       9.13
H       2.82      11.75       7.65
H       5.57      13.73       6.75
H       5.32      12.03       7.06
H       4.34      13.94      10.13
H       5.72      13.10       9.42
H       1.46       9.58      11.79
H       2.32       9.10      13.26
H       8.91       8.99      13.62
H       8.53      10.27      14.76
H       8.66      11.17      12.14
H       0.89      12.26      12.17
H       3.75      10.22      11.51
H       2.82      11.70      11.75
H       5.57      12.60      13.73
H       5.32      12.29      12.03
H       4.34       9.22      13.94
H       5.72       9.93      13.10
H       1.46       9.77       7.56
H       2.32      10.26       6.09
H       8.91      10.36       5.73
H       8.53       9.08       4.59
H       8.66       8.18       7.21
H       0.89       7.09       7.19
H       3.75       9.13       7.85
H       2.82       7.65       7.60
H       5.57       6.75       5.62
H       5.32       7.06       7.32
H       4.34      10.13       5.41
H       5.72       9.42       6.26
C       6.58      16.35      19.07
C       4.79      14.77      19.30
C       5.53      13.66       0.70
C       4.82      16.27      17.39
C       4.06      15.42      16.36
C       7.78      16.77      18.24
C       0.21      16.01      16.61
C       8.53      16.07      15.33
C       0.34      15.19      18.89
C       1.00      13.81      18.66
C       6.58       3.00       0.28
C       4.79       4.58       0.05
C       5.53       5.69      18.65
C       4.82       3.09       1.96
C       4.06       3.93       2.99
C       7.78       2.58       1.11
C       0.21       3.34       2.74
C       8.53       3.28       4.02
C       0.34       4.17       0.47
C       1.00       5.54       0.69
C       6.58       0.28      16.35
C       4.79       0.05      14.77
C       5.53      18.65      13.66
C       4.82       1.96      16.27
C       4.06       2.99      15.42
C       7.78       1.11      16.77
C       0.21       2.74      16.01
C       8.53       4.02      16.07
C       0.34       0.47      15.19
C       1.00       0.69      13.81
C       6.58      19.07       3.00
C       4.79      19.30       4.58
C       5.53       0.70       5.69
C       4.82      17.39       3.09
C       4.06      16.36       3.93
C       7.78      18.24       2.58
C       0.21      16.61       3.34
C       8.53      15.33       3.28
C       0.34      18.89       4.17
C       1.00      18.66       5.54
C       1.98       6.66       9.97
C       0.20       5.07       9.75
C       0.95       3.95       9.01
C       0.23       6.55      11.66
C       8.63       5.67      12.68
C       3.18       7.10      10.80
C       4.79       6.36      12.41
C       3.96       6.42      13.69
C       4.92       5.52      10.15
C       5.58       4.16      10.39
C       1.98      12.69       9.38
C       0.20      14.29       9.60
C       0.95      15.40      10.35
C       0.23      12.80       7.69
C       8.63      13.68       6.67
C       3.18      12.25       8.56
C       4.79      12.99       6.94
C       3.96      12.93       5.66
C       4.92      13.83       9.21
C       5.58      15.19       8.96
C       1.98       9.97      12.69
C       0.20       9.75      14.29
C       0.95       9.01      15.40
C       0.23      11.66      12.80
C       8.63      12.68      13.68
C       3.18      10.80      12.25
C       4.79      12.41      12.99
C       3.96      13.69      12.93
C       4.92      10.15      13.83
C       5.58      10.39      15.19
C       1.98       9.38       6.66
C       0.20       9.60       5.07
C       0.95      10.35       3.95
C       0.23       7.69       6.55
C       8.63       6.67       5.67
C       3.18       8.56       7.10
C       4.79       6.94       6.36
C       3.96       5.66       6.42
C       4.92       9.21       5.52
C       5.58       8.96       4.16
N       5.63      15.49      18.34
N       8.62      15.64      17.81
N       5.63       3.86       1.01
N       8.62       3.71       1.54
N       5.63       1.01      15.49
N       8.62       1.54      15.64
N       5.63      18.34       3.86
N       8.62      17.81       3.71
N       1.04       5.79      10.71
N       4.03       5.98      11.23
N       1.04      13.56       8.65
N       4.03      13.38       8.13
N       1.04      10.71      13.56
N       4.03      11.23      13.38
N       1.04       8.65       5.79
N       4.03       8.13       5.98
O       6.65      13.23       0.27
O       4.96      13.22       1.75
O       4.34      14.18      16.26
O       3.20      16.05      15.67
O       7.32      15.66      15.34
O       9.10      16.54      14.30
O       1.90      13.50       0.13
O       0.61      13.10      17.67
O       6.65       6.12      19.08
O       4.96       6.13      17.60
O       4.34       5.17       3.09
O       3.20       3.30       3.68
O       7.32       3.69       4.01
O       9.10       2.81       5.05
O       1.90       5.86      19.22
O       0.61       6.25       1.68
O       6.65      19.08      13.23
O       4.96      17.60      13.22
O       4.34       3.09      14.18
O       3.20       3.68      16.05
O       7.32       4.01      15.66
O       9.10       5.05      16.54
O       1.90      19.22      13.50
O       0.61       1.68      13.10
O       6.65       0.27       6.12
O       4.96       1.75       6.13
O       4.34      16.26       5.17
O       3.20      15.67       3.30
O       7.32      15.34       3.69
O       9.10      14.30       2.81
O       1.90       0.13       5.86
O       0.61      17.67       6.25
O       2.04       3.49       9.46
O       0.40       3.55       7.93
O       8.96       4.44      12.77
O       7.74       6.26      13.36
O       2.76       5.98      13.70
O       4.54       6.92      14.72
O       6.46       3.82       9.54
O       5.22       3.49      11.41
O       2.04      15.86       9.89
O       0.40      15.80      11.43
O       8.96      14.91       6.59
O       7.74      13.10       5.99
O       2.76      13.37       5.65
O       4.54      12.43       4.63
O       6.46      15.54       9.81
O       5.22      15.87       7.94
O       2.04       9.46      15.86
O       0.40       7.93      15.80
O       8.96      12.77      14.91
O       7.74      13.36      13.10
O       2.76      13.70      13.37
O       4.54      14.72      12.43
O       6.46       9.54      15.54
O       5.22      11.41      15.87
O       2.04       9.89       3.49
O       0.40      11.43       3.55
O       8.96       6.59       4.44
O       7.74       5.99       6.26
O       2.76       5.65       5.98
O       4.54       4.63       6.92
O       6.46       9.81       3.82
O       5.22       7.94       3.49
