360

C       0.12      21.41       2.70
C       0.09      21.06       4.07
C       0.04      19.71       4.49
C       0.08      18.70       3.50
C       0.11      19.01       2.11
C       0.10      20.38       1.74
C       0.17      12.80      31.66
C       0.13      13.19      30.30
C       0.07      14.55      29.91
C       0.05      15.53      30.93
C       0.03      15.18      32.31
C       0.10      13.81      32.65
C       0.13      31.49      21.61
C       0.05      30.12      21.25
C       0.02      29.70      19.91
C       0.09      30.69      18.90
C       0.14      32.07      19.21
C       0.13      32.45      20.58
C       0.21       2.65      12.80
C       0.17       4.01      13.20
C       0.13       4.39      14.56
C       0.11       3.37      15.53
C       0.07       2.00      15.19
C       0.14       1.66      13.81
C       0.32      29.24       2.21
C       0.30      29.68       0.87
C       0.18      28.95      34.04
C       0.05      27.41       0.07
C       0.05      26.92       1.40
C       0.18      27.85       2.46
C       0.39       4.96      32.17
C       0.40       4.52      33.51
C       0.32       5.26       0.34
C       0.19       6.64       0.07
C       0.15       7.28      32.98
C       0.25       6.34      31.92
C       0.28      32.08      29.44
C       0.30      33.42      29.88
C       0.24       0.41      28.98
C       0.11      34.22      27.60
C       0.07      32.88      27.12
C       0.15      31.83      28.06
C       0.41       2.12       4.95
C       0.40       0.78       4.51
C       0.32      33.79       5.41
C       0.20      34.07       6.79
C       0.17       1.31       7.27
C       0.28       2.37       6.33
C       9.88      12.28      15.00
C       9.84      12.68      16.35
C       9.90      11.75      17.41
C       0.12      10.38      17.09
C       0.19       9.94      15.75
C       0.11      10.91      14.71
C       9.68      21.87      19.38
C       9.69      21.45      18.03
C       9.82      22.36      16.96
C       0.04      23.73      17.26
C       0.04      24.19      18.60
C       9.83      23.25      19.65
C       9.73      14.85      22.01
C       9.68      16.20      21.59
C       9.75      17.27      22.50
C       9.91      16.98      23.88
C       0.06      15.64      24.34
C       9.90      14.59      23.39
C       9.84      19.29      12.33
C       9.86      17.96      12.78
C       0.04      16.88      11.88
C       0.16      17.15      10.50
C       0.17      18.49      10.01
C       0.04      19.55      10.95
C       0.13      17.97       1.12
C       9.09      17.36      33.29
C       9.92      16.20      33.32
C       0.95      16.81       1.15
C       1.93      16.57       2.10
C       8.11      17.60      32.34
C       0.17      33.06      18.17
C       9.13       1.03      17.36
C       0.03       0.99      16.21
C       0.99      33.02      17.01
C       1.97      32.06      16.79
C       8.15       1.98      17.59
C       0.02      25.52       1.67
C       1.11      23.72       2.86
C       0.19      22.79       2.32
C       9.04      24.58       1.11
C       7.97      24.94       0.30
C       2.19      23.37       3.67
C       0.11       8.68      32.70
C       1.13      10.47      31.43
C       0.24      11.41      32.01
C       9.16       9.63      33.30
C       8.15       9.29      34.18
C       2.15      10.80      30.56
C       0.04      32.60      25.72
C       1.04      31.27      23.96
C       0.19      31.87      22.99
C       9.12      33.21      24.75
C       8.13      34.12      25.06
C       2.05      30.36      23.65
C       0.13       1.60       8.68
C       1.13       2.91      10.45
C       0.27       2.30      11.41
C       9.21       0.98       9.63
C       8.22       0.07       9.31
C       2.13       3.81      10.77
C       0.26       8.54      15.44
C       9.22       6.37      15.91
C       0.12       5.78      14.91
C       1.09       7.95      14.46
C       2.06       8.63      13.74
C       8.24       5.69      16.61
C       0.10      25.59      18.90
C       8.97      27.38      20.13
C       9.89      28.32      19.57
C       1.00      26.53      18.33
C       2.05      26.17      17.49
C       7.92      27.73      20.96
C       0.14      15.36      25.74
C       9.15      15.87      27.92
C       0.05      14.89      28.52
C       0.98      14.39      26.34
C       1.94      13.66      25.66
C       8.18      16.59      28.60
C       0.20      18.76       8.61
C       9.04      19.97       6.82
C       0.00      19.38       5.88
C       1.07      18.16       7.67
C       2.12      17.32       8.01
C       7.99      20.81       6.49
C       0.39      32.48       4.88
C       1.57      31.11       3.29
C       0.49      30.19       3.25
C       9.26      31.53       4.90
C       8.08      31.73       5.60
C       2.71      30.98       2.50
C       0.34       1.72      29.50
C       1.59       3.06      31.08
C       0.52       4.00      31.13
C       9.24       2.69      29.50
C       8.04       2.51      28.83
C       2.75       3.17      31.84
C       0.26      29.47      32.72
C       1.50      31.00      31.33
C       0.42      31.05      30.41
C       9.14      29.46      31.77
C       7.95      28.79      31.97
C       2.67      31.75      31.20
C       0.40       4.74       1.66
C       1.63       3.18       3.04
C       0.56       3.15       3.98
C       9.29       4.76       2.63
C       8.10       5.44       2.43
C       2.78       2.41       3.16
C       9.89      15.56      12.40
C       8.66      14.18      13.95
C       9.74      13.26      13.99
C       1.01      14.60      12.38
C       2.20      14.80      11.70
C       7.50      14.05      14.70
C       9.66      18.59      21.99
C       8.45      19.97      20.42
C       9.52      20.90      20.40
C       0.77      19.56      22.02
C       1.96      19.36      22.70
C       7.30      20.09      19.64
C       9.80      12.24      18.74
C       8.53      13.75      20.12
C       9.61      13.83      21.04
C       0.92      12.26      19.68
C       2.14      11.63      19.47
C       7.35      14.48      20.25
C       9.77      21.86      15.63
C       8.57      20.34      14.19
C       9.67      20.32      13.30
C       0.91      21.90      14.70
C       2.10      22.56      14.94
C       7.42      19.58      14.03
H       0.03      17.72       3.79
H       0.14      20.62       0.74
H       0.09      21.80       4.78
H       0.10      16.51      30.66
H       0.10      13.54      33.64
H       0.11      12.46      29.58
H       0.04      30.40      17.92
H       0.18      33.44      20.82
H       0.03      29.41      21.99
H       0.16       3.63      16.52
H       0.13       0.67      13.54
H       0.15       4.74      12.48
H       0.02      26.91      33.54
H       0.20      27.52       3.43
H       0.38      30.69       0.68
H       0.18       7.30       0.85
H       0.25       6.67      30.95
H       0.47       3.51      33.71
H       0.12       0.91      26.93
H       0.15      30.85      27.74
H       0.37      33.62      30.89
H       0.19      33.29       7.45
H       0.29       3.35       6.66
H       0.47       0.59       3.50
H       0.16       9.70      17.86
H       0.09      10.61      13.73
H       9.75      13.68      16.57
H       0.08      24.40      16.49
H       9.82      23.56      20.62
H       9.61      20.44      17.82
H       0.02      17.75      24.55
H       9.89      13.61      23.70
H       9.59      16.40      20.59
H       0.18      16.37       9.84
H       0.02      20.52      10.62
H       9.79      17.76      13.78
H       1.65      14.75       2.48
H       7.04      16.05      32.58
H       1.71      31.67      14.96
H       7.09       1.74      16.04
H       8.14      23.84      33.16
H       3.06      22.13       2.54
H       8.29      10.48       1.23
H       3.71      11.85      30.50
H       8.31       1.29      23.67
H       3.05      31.39      22.43
H       8.40      32.89      10.68
H       3.14       2.77      11.98
H       3.10       9.31      15.17
H       7.15       5.12      15.18
H       1.98      27.54      16.20
H       6.37      28.80      20.96
H       2.98      15.06      24.93
H       7.08      15.17      29.20
H       2.01      16.01       6.66
H       6.42      20.81       5.45
H       7.37      33.17       4.60
H       3.24      29.22       2.94
H       7.31       1.09      29.83
H       3.30       4.91      31.37
H       7.26      29.78      33.43
H       3.19      31.25      29.46
H       7.39       4.45       0.99
H       3.33       2.89       4.91
H       2.90      16.24      12.71
H       6.97      12.31      14.21
H       2.70      17.96      21.68
H       6.76      21.84      20.11
H       2.81      12.70      18.05
H       6.85      13.99      22.01
H       2.75      21.54      16.39
H       6.93      20.08      12.28
N       9.21      18.09       0.07
N       0.84      15.92       0.12
N       9.24      34.11      18.27
N       0.88      34.03      16.11
N       0.98      25.03       2.50
N       9.16      23.27       1.48
N       1.01       9.17      31.81
N       9.27      10.93      32.92
N       0.92      31.67      25.25
N       9.24      32.80      23.45
N       1.01       2.52       9.15
N       9.32       1.37      10.94
N       9.33       7.72      16.10
N       0.97       6.61      14.25
N       9.09      26.08      19.76
N       0.89      27.83      18.71
N       9.24      16.04      26.57
N       0.89      14.21      27.69
N       9.19      19.62       8.13
N       0.94      18.52       6.36
N       1.45      32.21       4.07
N       9.35      30.46       4.05
N       1.42       1.97      30.29
N       9.36       3.75      30.35
N       1.35      30.24      32.45
N       9.26      30.28      30.69
N       1.47       3.95       1.93
N       9.40       3.94       3.71
N       8.81      15.29      13.18
N       0.89      13.52      13.20
N       8.59      18.86      21.19
N       0.67      20.63      21.19
N       8.70      12.99      19.01
N       0.79      13.08      20.76
N       8.70      21.09      15.32
N       0.82      21.09      13.61
O       2.85      17.37       2.16
O       2.21      15.43       2.49
O       7.97      18.74      31.93
O       7.12      16.87      32.23
O       2.89      32.01      17.60
O       2.27      31.66      15.66
O       7.98       2.40      18.72
O       7.16       2.09      16.85
O       7.09      25.61       0.82
O       7.61      24.40      33.61
O       2.51      24.13       4.57
O       3.10      22.64       3.26
O       7.27       8.55      33.74
O       7.77       9.88       0.84
O       2.47      10.00      29.68
O       2.98      11.63      30.95
O       7.24      33.75      25.82
O       7.79       0.93      24.29
O       2.24      29.43      24.42
O       3.01      30.67      22.94
O       7.33       0.46       8.56
O       7.88      33.25      10.07
O       2.34       4.75      10.01
O       3.10       3.49      11.47
O       2.22       8.35      12.56
O       3.03       9.15      14.30
O       8.09       5.95      17.80
O       7.23       5.25      16.05
O       2.89      25.43      17.96
O       2.47      26.93      16.60
O       7.56      26.94      21.82
O       7.12      28.57      20.54
O       2.12      12.49      25.97
O       2.91      14.20      25.11
O       8.05      17.78      28.34
O       7.17      16.04      29.06
O       2.98      17.77       8.75
O       2.52      16.41       7.27
O       7.66      21.68       7.27
O       7.17      20.38       5.67
O       7.65      30.79       6.24
O       7.22      32.51       5.17
O       3.25      31.99       2.06
O       3.45      29.99       2.55
O       7.61       3.47      28.20
O       7.16       1.75      29.27
O       3.27       2.15      32.26
O       3.50       4.15      31.77
O       7.48      28.16      31.03
O       7.10      29.22      32.77
O       3.19      32.21      32.21
O       3.40      31.66      30.21
O       7.65       6.07       3.38
O       7.24       5.01       1.65
O       3.30       1.96       2.15
O       3.53       2.48       4.15
O       2.64      13.86      11.06
O       3.06      15.58      12.14
O       6.97      15.06      15.15
O       6.76      13.07      14.62
O       2.38      20.30      23.35
O       2.84      18.62      22.25
O       6.77      19.08      19.20
O       6.56      21.08      19.71
O       2.62      11.01      20.40
O       2.98      12.12      18.71
O       6.81      14.92      19.25
O       6.63      14.39      21.25
O       2.58      23.21      14.02
O       2.93      22.12      15.74
O       6.86      19.12      15.02
O       6.70      19.66      13.03
