22

H      19.13       3.77      11.87
H      19.62       4.39       9.50
H      17.16       8.41       8.73
H      15.72       9.87      10.11
H      15.23       9.28      12.48
H      16.15       7.21      13.46
O      18.52       4.21      14.10
O      16.46       5.08      14.18
O      19.80       6.67       7.75
O      17.67       6.32       7.23
C      17.80       5.41      12.20
C      18.67       4.65      11.43
C      18.95       5.00      10.10
C      18.34       6.11       9.55
C      17.49       6.95      10.31
C      16.93       8.14       9.77
C      16.14       8.97      10.54
C      15.87       8.63      11.89
C      16.39       7.48      12.44
C      17.20       6.60      11.68
C      17.56       4.89      13.58
C      18.63       6.39       8.12
