22

H      16.97      10.63       6.41
H      16.21      13.00       6.42
H      18.26      14.96       2.56
H      19.52      14.09       0.63
H      20.12      11.67       0.51
H      19.45      10.13       2.33
C      18.06      10.78       4.59
C      17.26      11.29       5.61
C      16.86      12.64       5.62
C      17.30      13.52       4.65
C      18.11      13.04       3.57
C      18.51      13.90       2.51
C      19.22      13.42       1.43
C      19.56      12.05       1.37
C      19.19      11.18       2.38
C      18.46      11.64       3.51
C      18.45       9.34       4.74
C      16.88      14.94       4.81
O      19.16       8.72       3.87
O      18.08       8.73       5.81
O      17.75      15.90       4.77
O      15.66      15.19       5.01
