22

H      16.97      11.01      15.22
H      16.21       8.63      15.23
H      18.25       6.68      19.09
H      19.51       7.56      21.03
H      20.12       9.97      21.13
H      19.46      11.51      19.30
C      18.05      10.86      17.05
C      17.26      10.34      16.03
O      17.77       5.74      16.88
C      16.86       9.00      16.02
O      19.16      12.92      17.77
C      18.10       8.60      18.08
O      18.04      12.92      15.85
C      17.30       8.12      17.00
C      18.50       7.74      19.14
C      18.45      10.00      18.14
C      18.43      12.30      16.91
C      16.88       6.70      16.84
O      15.66       6.44      16.63
C      19.21       8.23      20.22
C      19.18      10.46      19.27
C      19.55       9.60      20.28
