22

H      13.26      21.44       4.42
H      12.50      23.81       4.40
C      14.35      21.60       6.24
C      13.55      22.11       5.22
C      13.14      23.45       5.20
C      13.59      24.33       6.18
C      14.39      23.86       7.26
C      14.80      24.72       8.32
H      14.54      25.77       8.27
C      15.51      24.23       9.40
O      15.47      19.54       6.94
O      14.38      19.55       5.01
C      14.75      20.16       6.08
C      14.75      22.45       7.32
C      15.48      22.00       8.45
C      13.17      25.76       6.02
O      14.05      26.71       6.04
O      11.95      26.00       5.82
C      15.85      22.86       9.46
H      15.80      24.90      10.20
H      16.42      22.49      10.31
H      15.75      20.95       8.49
