22

C      14.09      20.28      16.22
C      14.96      21.06      15.47
C      15.24      22.38      15.83
C      14.63      22.93      16.94
C      13.77      22.16      17.78
C      13.22      22.70      18.97
C      12.44      21.92      19.79
C      12.17      20.58      19.45
C      12.68      20.03      18.29
C      13.49      20.80      17.42
C      13.86      18.90      15.70
C      14.92      24.36      17.23
H      15.42      20.62      14.59
H      15.91      22.98      15.22
H      13.44      23.74      19.24
H      12.01      22.35      20.70
H      11.54      19.98      20.10
H      12.45      19.00      18.02
O      14.83      18.39      15.03
O      12.76      18.30      15.89
O      16.10      24.71      17.51
O      13.97      25.25      17.16
