25

C       2.61       9.07      11.10
C       1.29       9.47      10.82
C       1.03      10.30       9.72
C       2.11      10.79       8.98
C       3.43      10.45       9.29
C       2.84       8.09      12.21
C       4.53      11.08       8.50
H      -2.21      11.35       6.53
H       0.10      10.68       7.20
H      -1.23      10.74      11.30
H      -3.49      11.39      10.46
H       4.70       9.24      10.56
H       0.48       9.08      11.43
H       1.94      11.47       8.15
N      -2.94      11.40       8.46
O       5.75      10.84       8.84
O       4.17      11.86       7.56
O       3.77       7.23      12.05
O       2.08       8.17      13.23
C      -1.94      11.20       7.58
C      -0.66      10.84       7.96
C      -0.35      10.66       9.32
C      -1.40      10.85      10.23
C      -2.66      11.22       9.78
C       3.68       9.55      10.34
