24

H       3.41       8.43       4.36
H       4.95       6.51       3.26
H       2.58       9.20       1.46
H       6.02       6.96       1.95
H       4.01       7.45       0.50
H       3.46      10.03       3.63
H       1.74       6.89       1.24
H       5.14       9.29       1.93
H       2.35       6.46       2.86
C       5.04       7.19       2.40
C       3.52       8.96       3.39
C       5.89       9.10       3.87
C       2.53       7.09       1.98
C       4.11       5.40       0.95
C       3.93       6.83       1.40
C       4.92       8.66       2.82
C       1.02       8.81       2.76
C       2.45       8.59       2.36
O       4.13       5.14      -0.29
O       0.65       8.40       3.92
O       0.16       9.04       1.80
O       6.56      10.21       3.72
O       4.27       4.50       1.86
O       6.05       8.42       4.94
