24

H       9.97       2.95      10.49
H      11.70       3.89       8.12
H      10.64       0.32       7.39
H      11.39       1.20       9.57
H       9.05       3.80       7.68
H      10.66       1.94       6.69
H       7.99       3.34       9.00
H      12.23       3.50       9.76
H       8.92       1.05       9.02
C      10.06       3.57       9.58
C      13.06       1.49       8.15
C       9.14       1.71       8.17
C       8.99       3.17       8.58
C      11.47       3.28       9.01
C       9.83       5.02       9.96
C      10.54       1.39       7.63
C      11.61       1.79       8.65
C       8.14       1.33       7.14
O      13.44       2.30       7.11
O       7.90       2.04       6.10
O       9.76       5.33      11.23
O      13.94       1.36       9.20
O       7.50       0.20       7.29
O       9.69       5.87       9.04
