220

K      14.74      21.69      16.30
K      16.06      18.38      14.01
K      21.39      20.49      16.57
K      13.01       0.46       0.48
K      11.68       3.77       2.77
K       6.37       1.66       0.23
Zn      10.65      14.38       0.48
Zn      11.34       5.01      12.70
Zn      17.10       7.77      16.31
Zn      16.40      17.12       4.08
H      23.60      13.21      14.38
H      11.85      13.34      15.03
H      25.44      16.79      15.91
H      22.23      15.17      13.40
H      20.06      16.35      13.77
H      14.38      12.34       0.90
H      16.56      11.23       0.50
H      11.68      12.01      13.08
H      12.21       9.58      12.86
H       8.81       8.65      15.33
H       8.18      11.04      15.37
H      11.38      17.77      15.17
H      13.38      19.00      15.91
H       7.92      10.21       0.93
H       5.91       8.96       0.14
H      23.81      18.90      11.38
H      10.39      17.08       8.46
H      22.16      17.45       7.70
H      17.58       3.61      10.73
H      15.39       4.53      11.44
H      18.21      17.82      10.25
H      20.39      16.93       9.43
H       9.49      18.32      12.75
H      11.32      19.53      13.94
H      13.44      20.00      10.25
H      11.61      18.84       9.03
H      10.10      15.29       7.03
H      10.71      14.87       4.65
H       7.99      17.94       3.37
H       7.38      18.30       5.78
H      13.83       5.06      14.14
H       4.14       8.93       2.41
H      15.89       8.81       1.75
H       2.31       5.36       0.88
H       5.52       6.97       3.39
H       7.69       5.79       3.01
H      13.36       9.81      15.89
H      11.19      10.92      16.29
H      16.05      10.14       3.71
H      15.53      12.56       3.93
H      18.93      13.49       1.47
H      19.56      11.10       1.42
H      16.36       4.37       1.63
H      14.37       3.15       0.88
H      19.84      11.93      15.84
H      21.84      13.18      16.64
H       3.93       3.25       5.41
H      17.35       5.06       8.33
H       5.58       4.70       9.09
H      10.16      18.53       6.06
H      12.35      17.62       5.34
H       9.54       4.32       6.53
H       7.35       5.21       7.35
H      18.25       3.83       4.04
H      16.42       2.62       2.85
H      14.30       2.15       6.54
H      16.12       3.31       7.76
H      17.64       6.85       9.76
H      17.03       7.27      12.14
H      19.76       4.21      13.42
H      20.36       3.85      11.00
H      13.91      17.09       2.65
C      24.38      15.08      15.13
C      24.49      13.76      14.67
C       9.75      13.13      14.62
C      10.89      13.84      15.04
C      10.80      15.16      15.50
C      25.53      15.77      15.53
C      23.06      15.73      15.31
C      22.04      15.69      14.34
C      20.83      16.35      14.54
C      20.59      17.04      15.74
C      21.58      17.05      16.73
C      22.80      16.42      16.51
C       9.92      11.70      14.27
C      11.04      11.27      13.55
C      11.35       9.91      13.44
C      10.57       8.96      14.12
C       9.42       9.38      14.79
C       9.07      10.73      14.83
C      12.00      15.88      15.99
C      12.14      17.25      15.75
C      13.27      17.95      16.18
C       7.29      12.09       0.10
C       7.13      10.72       0.37
C      13.02      15.22      16.71
C      11.00       7.52      14.16
C      19.32      17.81      15.95
C       8.55      12.79       0.50
C      22.83      18.17       9.61
C      23.95      18.38      10.44
C       9.25      18.01      10.03
C       9.40      17.35       8.80
C       8.29      17.14       7.94
C      23.01      17.56       8.37
C      21.51      18.67      10.04
C      21.42      19.95      10.62
C      15.46       3.52      11.03
C      19.03      19.70      10.90
C      19.12      18.42      10.33
C      20.34      17.92       9.88
C      10.41      18.50      10.80
C      10.35      18.69      12.20
C      11.38      19.35      12.87
C      12.49      19.84      12.17
C      12.58      19.61      10.79
C      11.56      18.95      10.11
C       8.52      16.67       6.59
C       9.56      15.81       6.23
C       9.95      15.60       4.91
C       9.40      16.42       3.87
C       8.40      17.31       4.15
C       7.68      17.28       5.48
C      17.73      20.20      11.44
C      13.56      20.61      12.88
C       9.87      16.27       2.45
C      17.96      21.40      14.83
C      20.29      15.71       2.42
C       6.44      16.56       5.11
C      21.56      16.12       4.39
C       3.37       7.06       1.66
C       3.25       8.38       2.12
C      17.99       9.01       2.17
C      16.85       8.30       1.75
C      16.94       6.98       1.29
C       2.21       6.37       1.26
C       4.69       6.41       1.48
C       5.70       6.45       2.45
C       6.92       5.80       2.25
C       7.15       5.11       1.05
C       6.16       5.10       0.05
C       4.94       5.73       0.27
C      17.82      10.44       2.52
C      16.70      10.88       3.25
C      16.40      12.23       3.36
C      17.17      13.18       2.68
C      18.32      12.76       2.00
C      18.67      11.41       1.97
C      15.75       6.27       0.80
C      15.60       4.89       1.05
C      14.47       4.20       0.61
C      20.46      10.05      16.68
C      20.62      11.42      16.40
C      14.73       6.92       0.07
C      16.74      14.62       2.63
C       8.42       4.34       0.83
C      19.20       9.35      16.28
C       4.91       3.98       7.18
C       3.79       3.76       6.35
C      18.49       4.13       6.76
C      18.34       4.79       7.99
C      19.44       5.01       8.85
C       4.73       4.58       8.42
C       6.23       3.47       6.74
C       6.32       2.19       6.16
C      12.28      18.62       5.76
C       8.70       2.45       5.88
C       8.62       3.73       6.45
C       7.40       4.22       6.90
C      17.33       3.64       5.99
C      17.39       3.46       4.59
C      16.36       2.79       3.92
C      15.25       2.30       4.62
C      15.16       2.53       6.00
C      16.18       3.19       6.68
C      19.21       5.48      10.20
C      18.18       6.34      10.55
C      17.79       6.54      11.88
C      18.34       5.73      12.92
C      19.34       4.84      12.64
C      20.06       4.87      11.31
C      10.00       1.95       5.33
C      14.18       1.53       3.91
C      17.88       5.88      14.34
C       9.78       0.75       1.96
C       7.46       6.45      14.37
C      21.30       5.58      11.67
C       6.18       6.02      12.40
N      20.64      15.64       3.57
N       7.10       6.50      13.22
O      18.36      17.72      15.16
O      12.34      13.41       0.20
O      11.20       6.98      15.28
O      11.13       6.95      13.01
O      15.76      19.17      16.73
O       9.38      12.27       1.26
O      12.90       4.54      11.61
O      16.84      19.37      11.75
O      13.64      20.56      14.14
O       9.61       4.33      12.11
O       9.41      17.04       1.56
O      10.70      15.30       2.23
O      16.80      21.05      14.46
O      18.48      21.12      15.96
O      19.88      15.68       1.30
O       9.38       4.42       1.63
O      15.41       8.75      16.57
O      16.61      15.18       1.50
O      16.54      15.17       3.78
O      11.98       2.97       0.06
O      18.36       9.87      15.52
O      14.83      17.60       5.16
O      10.90       2.77       5.03
O      14.10       1.58       2.65
O      18.13      17.81       4.68
O      18.33       5.10      15.23
O      17.05       6.84      14.56
O      10.94       1.10       2.33
O       9.26       1.03       0.83
O       7.88       6.50      15.49
