16

C      -3.62       6.06       5.03
Zn      -1.27       2.65       5.27
Zn      -4.94       3.26       4.95
N      -0.49       2.32       7.20
N      -2.76       1.18       5.24
N      -4.00       1.44       4.67
C      -1.33       2.12       8.27
N      -5.71       3.59       3.01
N      -3.45       4.73       4.97
N      -2.21       4.47       5.55
C       0.59       1.53       7.46
C      -2.59      -0.15       5.19
C      -4.52       0.26       4.30
C      -4.88       3.79       1.95
C      -6.80       4.38       2.76
C      -1.69       5.65       5.92
