22

H      13.28       5.40      11.44
H      13.62      10.88      13.51
H      14.59       6.12      13.35
H      11.72      12.25      12.86
H       9.76      11.20      11.77
H       9.83       8.85      11.18
C      13.73       8.12      13.40
C      12.82       9.01      12.78
C      11.85       8.48      11.93
C      13.10       6.38      11.85
C      13.88       6.81      12.91
C      12.80      10.40      13.02
C      11.72      11.19      12.64
C      10.64      10.61      12.01
C      10.69       9.26      11.66
C      12.09       7.21      11.34
C      14.31       8.48      14.70
C      11.46       6.87      10.06
O      11.99       5.92       9.34
O      11.10       7.93       9.42
O      14.85       7.53      15.42
O      13.55       9.29      15.33
