14

O       3.37       1.71       8.62
O       2.80      -0.41       8.00
H       1.43       3.25       8.78
H      -0.98       3.90       8.47
O      -2.73       2.48       7.39
H      -1.88       0.29       6.65
H       0.52      -0.54       6.95
C       2.56       0.83       8.18
C       1.16       1.30       7.88
C       0.73       2.57       8.30
N      -1.48       2.11       7.54
C      -1.08       0.87       7.10
C       0.22       0.46       7.27
C      -0.58       2.95       8.14
