14

O      10.98       9.35       9.13
O      11.55      11.47       9.74
H      12.91       7.81       8.97
H      15.33       7.16       9.28
O      17.08       8.58      10.35
H      16.22      10.78      11.10
H      13.83      11.60      10.80
C      11.78      10.23       9.57
C      13.19       9.76       9.86
C      13.61       8.49       9.45
C      14.93       8.11       9.61
C      15.43      10.19      10.65
C      14.12      10.61      10.48
N      15.83       8.96      10.20
