14

O       5.18       1.71      11.44
H       4.70       1.60      13.95
O       4.82      -0.25      10.43
H       4.87       0.43      16.17
H       5.38      -2.22      12.03
C       4.99       0.46      11.48
C       5.01      -0.22      12.81
C       4.86       0.52      13.99
C       4.95      -0.09      15.22
C       5.36      -2.18      14.17
C       5.25      -1.60      12.92
O       5.35      -1.98      16.48
H       5.56      -3.24      14.35
N       5.21      -1.43      15.30
