27

H      10.04       7.79       3.13
H      12.06       6.87       4.23
H       9.68       5.74       7.65
H       7.67       6.68       6.52
H      13.16       5.88       6.04
H      11.38       4.67       8.27
H      12.66       4.06      10.24
H      14.75       3.13      11.20
H      16.72       3.38       7.56
H      14.73       4.36       6.45
N      15.83       3.22       9.42
O       7.68       8.46       2.99
O       6.37       7.68       4.66
C       7.49       7.84       4.12
C       8.73       7.28       4.76
C       9.97       7.33       4.11
C      11.10       6.81       4.73
C      11.02       6.21       6.00
C       9.77       6.17       6.65
C       8.64       6.70       6.03
C      12.23       5.64       6.58
C      12.29       4.88       7.70
C      13.51       4.32       8.25
C      13.54       3.93       9.61
C      14.70       3.40      10.15
C      15.81       3.57       8.11
C      14.69       4.11       7.51
