27

C       4.12      18.02      10.97
C       4.84      19.21      11.49
C       5.12      19.37      12.86
C       5.84      20.47      13.30
C       6.31      21.45      12.39
C       6.04      21.27      11.02
C       5.31      20.18      10.58
C       7.03      22.59      12.91
C       7.40      23.69      12.21
C       8.09      24.84      12.75
C       8.57      24.91      14.08
C       9.20      26.06      14.52
H       4.76      18.63      13.56
H       6.06      20.59      14.36
H       6.42      21.99      10.30
H       5.11      20.03       9.52
H       7.27      22.54      13.98
H       7.13      23.77      11.15
C       8.31      25.98      11.94
H       8.45      24.07      14.76
C       8.94      27.10      12.47
H       7.96      26.00      10.91
H       9.08      27.99      11.86
N       9.39      27.15      13.74
O       3.81      17.06      11.78
O       3.86      17.95       9.73
H       9.57      26.15      15.55
