26

N      12.05       6.46      13.91
C      14.69       4.99      10.68
C      15.92       4.48      10.29
C      17.03       5.33      10.31
C      16.87       6.65      10.73
C      15.60       7.09      11.14
C      15.36       8.44      11.69
C      16.35       9.42      11.74
Cu      12.86       7.09      11.91
C      16.04      10.67      12.28
C      14.76      10.90      12.77
C      13.82       9.88      12.70
Cu      10.32       7.41      13.78
N      10.57       7.11      10.00
N      14.53       6.26      11.10
N      14.11       8.67      12.16
N      11.34       7.11      10.84
C      13.08       5.88      13.98
H      13.79       4.38      10.65
H      16.00       3.43       9.99
H      18.01       4.98      10.01
H      17.72       7.32      10.75
H      17.35       9.23      11.37
H      16.80      11.44      12.34
H      14.49      11.86      13.21
H      12.80      10.01      13.07
