9

C      -1.42       0.02      10.08
C       1.63       2.64       8.68
C       2.93       0.70       8.67
Cu       0.21       0.04       9.26
C       2.90      -0.77       8.70
C      -2.49      -0.02      10.76
C       1.53      -2.66       8.80
N       1.67      -1.32       8.85
N       1.72       1.30       8.80
