9

C      13.50      19.78      17.67
C      17.51      17.32      15.79
C      18.84      20.72      15.61
C      18.82      19.24      15.58
N      17.60      18.66      15.77
N      17.63      21.31      15.81
C      17.57      22.66      15.87
N      14.50      19.89      17.05
Cu      16.11      19.99      16.13
