26

C       7.15      10.90       8.07
C       8.09       9.88       8.15
Cu      11.59       7.41       7.07
N       9.86       6.46       6.93
Cu       9.05       7.09       8.93
N       7.38       6.26       9.74
N       7.81       8.67       8.68
N      10.57       7.11      10.00
N      11.34       7.11      10.84
C       8.83       5.88       6.87
H       8.12       4.38      10.19
H       5.91       3.43      10.86
H       3.90       4.98      10.84
H       4.19       7.32      10.09
H       4.56       9.23       9.47
H       5.11      11.44       8.51
H       7.43      11.86       7.63
H       9.11      10.01       7.78
C       7.22       4.99      10.16
C       5.99       4.48      10.56
C       4.88       5.33      10.54
C       5.05       6.65      10.12
C       6.31       7.09       9.70
C       6.55       8.44       9.16
C       5.56       9.42       9.11
C       5.87      10.67       8.57
