9

N       2.90      18.60       1.91
N       2.93      21.26       1.90
Cu       1.41      19.95       2.29
N      -1.20      19.72       3.79
C      -0.20      19.84       3.17
C       2.80      17.26       1.92
C       4.12      19.17       1.73
C       4.14      20.65       1.72
C       2.87      22.60       1.89
