22

C      11.99       7.54       2.73
C       9.92       3.44       6.62
C      14.48       3.70       6.66
O      14.88       4.83       3.18
O      10.73       2.53       6.20
O      13.55       2.96       6.11
O      12.13       4.88       4.68
O      13.09       7.07       3.27
O      10.80       7.28       3.14
O       9.77       4.61       3.25
O      10.74       2.52       3.15
O      13.57       2.95       3.29
O      14.86       4.84       6.23
O      13.07       7.08       6.09
O      10.78       7.29       6.18
O       9.76       4.62       6.07
C      10.39       3.64       2.57
C      14.45       3.71       2.71
C      11.97       7.53       6.62
Cr      13.89       5.92       4.69
Cr      12.16       2.83       4.69
Cr      10.35       5.89       4.66
