24

C       5.01      -0.29      26.37
C       5.12      -0.99      24.17
C       5.85       0.15      23.79
C       6.08       1.14      24.76
C       5.65       0.92      26.06
C       6.47       0.29      22.45
C       4.73      -0.65      27.78
O       6.98       1.41      22.13
C       4.95      -0.07      29.99
C       4.51      -1.33      30.43
C       4.21      -1.91      28.11
O       6.57      -0.74      21.68
C       4.11      -2.25      29.46
C       4.43      -1.61      31.89
O       4.79      -0.70      32.71
O       3.99      -2.76      32.26
H       4.90      -1.77      23.43
H       6.63       2.03      24.48
H       5.82       1.64      26.86
H       5.20       0.69      30.73
H       3.74      -3.23      29.76
H       3.90      -2.59      27.32
N       4.72      -1.22      25.42
N       5.08       0.27      28.71
