24

O       3.65       8.33       8.44
H       4.47       9.11      10.65
H       4.63       4.84      10.08
H       5.01       4.62      12.58
O       5.88       7.23      19.27
O       6.25       5.07      18.82
C       5.02       6.66      14.36
C       5.32       5.31      16.20
C       5.40       6.42      17.06
C       5.22       7.70      16.52
C       5.03       7.82      15.15
C       5.82       6.22      18.47
H       5.43       4.30      16.60
H       5.27       8.57      17.17
H       4.90       8.79      14.67
C       4.88       6.75      12.89
C       4.58       8.10      11.06
C       4.51       6.99      10.19
C       4.68       5.71      10.73
C       4.88       5.59      12.10
C       4.08       7.18       8.79
N       4.76       7.99      12.37
N       5.15       5.41      14.88
O       4.03       6.18       7.98
