24

O       7.76       9.73      22.19
O      10.16       7.66      32.71
O      10.93       5.59      32.26
O       8.13       7.58      21.73
C       9.82       8.03      26.37
C       9.64       7.31      24.19
C       8.92       8.46      23.82
C       8.74       9.46      24.79
C       9.20       9.25      26.08
C       8.27       8.60      22.50
C      10.13       7.68      27.78
C       9.96       8.29      30.00
C      10.40       7.03      30.44
C      10.77       6.09      29.47
C      10.65       6.42      28.12
C      10.50       6.74      31.90
H       9.83       6.53      23.45
H       8.19      10.36      24.51
H       9.06       9.98      26.88
H       9.73       9.06      30.73
H      11.14       5.12      29.76
H      10.93       5.73      27.33
N      10.08       7.09      25.44
N       9.82       8.61      28.71
