24

O       1.10       6.32       8.43
O      -1.03       3.93      19.16
H       1.33       1.97      16.65
H      -1.64       5.07      16.93
H      -1.28       5.51      14.46
H       1.69       2.42      12.63
H       2.17       2.92      10.19
H      -0.31       6.41      10.56
N       0.93       2.98      14.89
N      -0.13       5.26      12.28
C       0.20       3.95      14.29
C       0.73       2.76      16.19
C      -0.20       3.47      16.97
C      -0.92       4.50      16.35
C      -0.73       4.74      14.99
C      -0.45       3.10      18.39
C       0.45       4.17      12.84
C       1.27       3.29      12.12
C       1.54       3.57      10.79
C       0.99       4.72      10.20
C       0.15       5.52      10.99
C       1.37       5.12       8.82
O       1.98       4.25       8.11
O      -0.13       1.91      18.76
