24

O       2.92      12.00       5.13
O       5.11      14.11      -5.45
O       5.92      16.17      -5.00
O       3.33      14.15       5.58
H       5.00      15.17       3.82
H       3.28      11.38       2.78
H       4.08      11.76       0.39
H       4.70      12.71      -3.47
C       4.89      13.70       0.89
C       4.78      14.40       3.09
C       4.06      13.26       3.47
C       3.83      12.27       2.50
C       4.26      12.48       1.19
C       3.44      13.12       4.80
C       5.17      14.06      -0.52
H       6.00      16.00      -0.07
H       6.16      16.63      -2.50
C       5.79      15.66      -2.20
C       5.70      15.32      -0.86
C       5.40      14.73      -3.18
C       4.95      13.47      -2.74
C       5.48      15.02      -4.64
N       5.19      14.63       1.83
N       4.83      13.14      -1.45
