24

O       3.90       7.74       5.52
H       6.03       5.80       2.68
H       3.47       9.12       3.65
H       3.60       9.79       1.20
O       5.10      10.98      -5.05
C       4.95       8.52      -0.72
O       5.94       8.93      -5.52
C       4.37       9.99      -2.40
C       5.14       9.29      -3.35
C       5.79       8.12      -2.93
C       5.71       7.74      -1.60
C       5.38       9.77      -4.73
H       3.81      10.88      -2.68
H       6.38       7.56      -3.65
H       6.24       6.88      -1.20
C       4.89       8.16       0.72
C       5.47       6.69       2.40
C       4.71       7.39       3.35
C       4.05       8.56       2.93
C       4.13       8.94       1.60
C       4.46       6.91       4.73
N       5.58       7.06       1.11
N       4.27       9.62      -1.11
O       4.75       5.70       5.05
