29

H      16.75      16.85      11.56
H      16.07      14.44      11.22
H      17.21      17.31       7.33
H      13.36      13.92       8.93
H      11.61      13.00      10.46
H      12.23      11.23      12.11
H      14.58      10.45      12.27
C      17.43      18.64       9.64
C      16.99      17.22       9.46
C      16.67      16.42      10.56
C      16.29      15.09      10.38
O      17.79      19.32       8.65
C      16.52      15.36       7.97
O      17.42      19.09      10.86
C      16.94      16.67       8.17
C      16.35      14.81       6.58
O      17.51      11.92      11.56
C      14.92      12.70       9.76
O      17.47      14.46       6.00
C      16.21      14.57       9.09
O      15.88      13.23       8.87
C      13.60      13.16       9.67
C      12.98      11.64      11.45
O      15.22      14.73       6.07
C      15.30      11.73      10.69
C      12.63      12.63      10.52
C      14.30      11.20      11.53
C      16.73      11.30      10.81
O      17.03      10.25      10.10
