20

C       8.26       3.94       4.30
C       7.56       3.55       5.43
C       7.62       4.33       6.60
C       8.42       5.49       6.56
C       9.12       5.80       5.41
H       8.20       3.40       3.36
H       6.96       2.64       5.38
H       8.50       6.15       7.42
H       9.77       6.68       5.34
C       6.24       4.33      10.13
C       6.95       4.72       9.00
C       6.88       3.95       7.83
C       6.09       2.79       7.87
C       5.39       2.47       9.02
N       9.04       5.05       4.29
H       7.54       5.63       9.05
H       6.00       2.13       7.01
H       6.30       4.88      11.07
H       4.73       1.60       9.09
N       5.46       3.23      10.14
