29

H       9.52      10.11      10.09
H       8.82      12.51      10.42
H      10.01       9.68      14.32
H       6.12      13.03      12.72
H       4.36      13.95      11.19
H       4.97      15.72       9.54
H       7.32      16.52       9.38
O      10.62       7.67      13.01
O      10.23       7.89      10.80
O       9.77      16.73      11.54
O      10.28      15.03      10.12
O       8.64      13.73      12.77
O      10.24      12.53      15.64
O       8.00      12.23      15.58
C      10.24       8.34      12.02
C       9.78       9.75      12.19
C       9.44      10.54      11.08
C       9.05      11.87      11.26
C       8.97      12.40      12.55
C       9.30      11.62      13.68
C       9.73      10.30      13.48
C       9.13      12.17      15.07
C       7.67      14.25      11.89
C       6.36      13.80      11.98
C       5.38      14.32      11.13
C       5.73      15.31      10.20
C       7.05      15.76      10.12
C       8.04      15.23      10.96
C       9.48      15.67      10.84
