33

H       3.75       9.90       2.40
H       6.51       9.11      -0.81
H       5.83       6.14       2.27
H       6.46       5.93      -0.82
H       7.71       7.13      -0.89
H       8.49       7.03       2.20
H      10.68       3.34       2.30
H       7.75       3.99      -0.79
C       4.74       7.98       2.45
C       4.47       9.25       1.91
C       5.14       9.66       0.75
C       6.01       8.78       0.10
C       6.26       7.50       0.62
C       5.65       7.12       1.82
C       7.11       6.55      -0.17
C       8.03       5.64       0.59
C       8.69       6.05       1.76
C       9.64       5.23       2.36
C       9.93       3.96       1.83
C       9.22       3.51       0.70
C       8.29       4.35       0.09
C       3.99       7.52       3.66
C       4.94      11.04       0.20
C      10.38       5.70       3.57
C       9.42       2.12       0.18
O       4.44       6.58       4.39
O       2.87       8.11       3.92
O       3.91      11.70       0.53
O       5.82      11.50      -0.60
O       9.90       6.65       4.27
O      11.49       5.13       3.86
O      10.52       1.53       0.41
O       8.47       1.60      -0.47
