33

H       8.49       9.85       9.71
H      11.27      10.63       6.50
H      10.59      13.60       9.58
H      11.22      13.81       6.49
H      12.47      12.61       6.41
H      13.25      12.71       9.51
H      15.44      16.41       9.61
H      12.51      15.75       6.52
C       9.49      11.77       9.76
C       9.22      10.50       9.22
C       9.89      10.08       8.06
C      10.77      10.96       7.41
C      11.01      12.25       7.93
C      10.40      12.63       9.13
C      11.87      13.19       7.14
C      12.79      14.10       7.89
C      13.44      13.69       9.07
C      14.39      14.52       9.67
C      14.68      15.78       9.13
C      13.98      16.23       8.01
C      13.04      15.39       7.39
C       8.74      12.22      10.97
C       9.69       8.70       7.51
C      15.14      14.04      10.88
C      14.18      17.62       7.49
O       9.19      13.16      11.69
O       7.62      11.64      11.23
O       8.66       8.04       7.85
O      10.56       8.25       6.71
O      14.66      13.10      11.57
O      16.25      14.62      11.17
O      15.27      18.22       7.71
O      13.22      18.15       6.83
