10

Cu       0.34       2.67       0.13
N       2.10       3.57       0.25
O      -1.45       1.95      -0.14
O      -0.50       4.07       1.16
O       0.90       1.20      -0.97
C       2.09       4.90       0.42
C       1.53       1.21      -2.10
C       3.29       2.96       0.03
C      -1.35       3.82       2.11
C      -2.11       1.32       0.79
