55

C       1.91       6.64      22.32
C       3.21       7.31      22.04
C       3.25       8.58      21.44
C       4.48       9.18      21.12
C       5.66       8.50      21.43
C       5.63       7.25      22.06
C       4.40       6.65      22.36
C       6.90       6.56      22.42
C       4.53      10.51      20.48
C       4.59      13.04      19.23
C       5.32      10.73      19.33
C       5.34      11.97      18.70
C       3.85      12.83      20.41
C       3.80      11.58      21.01
C       4.58      14.38      18.61
C       4.84      15.51      19.36
C       4.75      16.81      18.92
C       4.19      15.98      16.81
C       4.23      14.64      17.26
C       4.99      17.99      19.77
C       5.85      17.93      20.88
C       6.05      19.06      21.65
C       4.59      20.30      20.33
C       4.37      19.22      19.48
C       4.01      16.35      15.39
C       3.23      17.46      15.01
C       3.18      17.84      13.67
C       4.64      16.14      13.07
C       4.72      15.68      14.38
C       3.81      13.51      16.37
H       2.31       9.08      21.22
H       6.62       8.96      21.22
H       4.37       5.67      22.84
H       5.90       9.91      18.91
H       5.94      12.12      17.81
H       3.29      13.67      20.83
H       3.24      11.43      21.93
H       6.37      17.00      21.12
H       6.74      19.09      22.49
H       4.09      21.25      20.17
H       3.72      19.31      18.62
H       2.68      18.03      15.76
H       2.59      18.70      13.35
H       5.24      15.69      12.29
H       5.38      14.85      14.62
H       2.25      12.66      15.72
N       4.40      17.03      17.63
N       5.41      20.23      21.40
N       3.88      17.19      12.71
O       0.82       7.32      22.09
O       1.87       5.46      22.76
O       8.00       7.18      22.09
O       6.91       5.44      23.00
O       2.45      13.42      16.29
O       4.57      12.75      15.79
