55

C       0.20       2.53      10.46
C       1.48       3.25      10.23
C       2.69       2.65      10.56
C       3.90       3.32      10.32
C       3.89       4.59       9.73
C       2.67       5.21       9.41
C       1.47       4.54       9.69
C       5.18       2.66      10.71
C       2.62       6.55       8.78
C       1.75       7.53       9.29
C       1.67       8.78       8.68
C       2.42       9.05       7.52
C       3.27       8.07       7.00
C       3.38       6.83       7.64
C       2.31      10.39       6.89
C       1.91      10.60       5.54
C       1.82      11.93       5.07
C       2.54      12.81       7.12
C       2.61      11.52       7.60
C       1.44      12.30       3.68
C       0.60      11.54       2.86
C       0.34      11.96       1.56
H       2.70       1.65      11.00
H       4.84       5.09       9.54
C       1.64      13.86       1.84
H       0.52       5.01       9.45
C       2.16      15.19       7.80
C       2.48      16.26       8.62
C       1.93      13.50       3.15
H       4.06       6.08       7.24
C       2.89      14.00       7.91
H       1.15       7.32      10.18
H       1.02       9.55       9.08
H       3.85       8.27       6.10
C       1.69       9.40       4.67
H       0.12      10.63       3.21
H      -0.32      11.41       0.89
H       2.03      14.78       1.42
H       2.56      14.15       3.76
H       0.54       7.91       4.48
N       2.10      12.99       5.85
N       0.87      13.09       1.04
H       1.33      15.26       7.10
H       1.90      17.19       8.59
C       3.97      13.97       8.81
N       3.51      16.23       9.50
H       5.13      15.16      10.21
H       4.60      13.09       8.89
O       6.28       3.26      10.34
O       5.19       1.57      11.32
O       0.19       1.33      10.82
O      -0.90       3.21      10.27
O       0.55       8.73       5.02
O       2.45       9.03       3.79
C       4.26      15.11       9.56
