55

H       2.07       6.59      12.51
H      -0.06       3.15      13.96
H       4.25       3.23      14.06
H       3.62       0.92      13.33
H       3.76      -1.30      14.43
H       0.92      -0.03      17.41
H       0.72       2.16      16.27
H       4.66      -2.39      20.30
H       5.09      -3.16      22.62
H       2.74      -6.54      22.09
H       2.22      -5.90      19.75
H       3.44      -7.02      16.41
H       2.87      -8.95      14.92
H      -0.35      -6.92      13.30
H       0.18      -4.84      14.62
H       4.24       0.33      19.03
N       2.67      -4.75      17.66
N       3.90      -4.85      22.47
N       1.27      -7.99      14.01
O      -1.51       4.98      13.17
O      -0.42       6.68      12.19
O       4.59       6.92      12.69
O       5.67       5.03      13.24
O       4.23      -0.49      18.49
O       2.33      -0.79      19.72
C       4.58       5.71      13.05
C       3.30       4.99      13.28
C       2.08       5.59      12.95
C       0.88       4.92      13.19
C       0.89       3.65      13.78
C       2.10       3.03      14.10
C       3.30       3.70      13.82
C      -0.41       5.58      12.80
C       2.16       1.70      14.73
C       3.02       0.71      14.22
C       3.10      -0.54      14.83
C       2.36      -0.81      15.99
C       1.50       0.18      16.51
C       1.39       1.41      15.87
C       2.47      -2.14      16.62
C       2.86      -2.36      17.97
C       2.96      -3.69      18.44
C       2.24      -4.57      16.39
C       2.16      -3.28      15.90
C       3.34      -4.06      19.83
C       4.18      -3.29      20.65
C       4.43      -3.72      21.95
C       3.13      -5.62      21.67
C       2.84      -5.26      20.36
C       1.88      -5.76      15.59
C       2.62      -6.95      15.71
C       2.30      -8.02      14.89
C       0.51      -6.87      13.95
C       0.80      -5.73      14.70
C       3.08      -1.15      18.84
