480

C       0.10      19.42      59.15
C       0.07      18.61      58.01
C       0.03      17.20      58.13
C       0.06      16.61      59.42
C       0.10      17.43      60.58
C       0.11      18.83      60.43
C       0.21       2.62      24.94
C       0.21       3.42      26.10
C       0.21       4.83      26.00
C       0.15       5.43      24.72
C       0.14       4.64      23.55
C       0.16       3.24      23.68
C       9.68      19.44      25.04
C       9.60      18.67      26.21
C       9.51      17.26      26.16
C       9.55      16.62      24.89
C       9.62      17.39      23.69
C       9.70      18.79      23.79
C       9.67       2.58      59.27
C       9.64       3.40      58.13
C       9.60       4.80      58.25
C       9.64       5.38      59.55
C       9.66       4.56      60.71
C       9.67       3.16      60.55
C       0.04       8.24      16.72
C       0.07       7.43      15.57
C       0.05       6.03      15.69
C       0.04       5.44      16.98
C       0.01       6.25      18.15
C       9.93       7.65      17.99
C       0.14      13.82      67.37
C       0.18      14.61      68.53
C       0.19      16.02      68.44
C       0.11      16.63      67.16
C       0.04      15.84      65.98
C       0.05      14.43      66.11
C       9.72       8.27      67.48
C       9.60       7.50      68.64
C       9.52       6.09      68.59
C       9.60       5.46      67.32
C       9.72       6.22      66.13
C       9.79       7.62      66.23
C       9.75      13.77      16.85
C       9.69      14.58      15.71
C       9.62      15.99      15.82
C       9.66      16.57      17.12
C       9.74      15.76      18.28
C       9.78      14.36      18.13
C       0.17      17.77      73.75
C       0.19      16.76      74.72
C       9.89      17.00      76.10
C       9.76      18.37      76.49
C       9.63      19.42      75.54
C       9.82      19.08      74.17
C       0.20       4.23      10.42
C       9.92       5.26       9.49
C       9.81       5.03       8.10
C       0.02       3.66       7.67
C       0.27       2.58       8.57
C       0.36       2.92       9.95
C       9.63      17.67      10.49
C       9.61      16.63       9.54
C       9.85      16.83       8.15
C       0.05      18.20       7.73
C       0.18      19.28       8.66
C       9.92      18.96      10.03
C       9.46       4.43      73.96
C       9.55       5.42      74.96
C       9.66       5.12      76.35
C       9.70       3.73      76.69
C       9.53       2.69      75.72
C       9.44       3.09      74.36
C       0.13       6.59      31.31
C       0.14       5.58      32.28
C       9.84       5.82      33.67
C       9.73       7.19      34.06
C       9.60       8.24      33.10
C       9.79       7.90      31.73
C       0.15      15.40      52.86
C       9.87      16.42      51.93
C       9.78      16.20      50.53
C       9.93      14.83      50.10
C       0.25      13.75      51.00
C       0.32      14.09      52.38
C       9.67       6.49      52.92
C       9.65       5.45      51.97
C       9.88       5.65      50.58
C       0.08       7.02      50.16
C       0.21       8.10      51.10
C       0.02       7.78      52.47
C       9.49      15.61      31.52
C       9.59      16.59      32.52
C       9.69      16.29      33.92
C       9.72      14.90      34.25
C       9.55      13.86      33.29
C       9.47      14.27      31.93
C       9.89      12.45      79.60
C       9.86      11.21      78.91
C       9.78       9.93      79.52
C       9.83       9.92      80.94
C       9.85      11.12      81.71
C       9.89      12.36      81.02
C       9.88       9.67       4.68
C       9.82      10.93       5.35
C       9.83      12.21       4.69
C       9.87      12.15       3.27
C       0.01      10.94       2.54
C       0.01       9.72       3.27
C       9.88       1.28      37.17
C       9.85       0.03      36.48
C       9.78      21.10      37.09
C       9.83      21.10      38.51
C       9.85      22.29      39.27
C       9.89       1.18      38.58
C       9.87      20.84      47.12
C       9.82      22.11      47.78
C       9.83       1.03      47.12
C       9.88       0.97      45.70
C       0.01      22.11      44.98
C       0.00      20.89      45.70
C       0.02      16.36      64.66
C       9.04      16.05      62.44
C       0.08      16.93      61.91
C       0.99      17.24      64.13
C       1.95      17.79      64.81
C       8.09      15.50      61.76
C       0.02       5.75      19.48
C       9.09       6.07      21.71
C       0.11       5.16      22.22
C       0.97       4.83      19.99
C       1.90       4.26      19.29
C       8.17       6.65      22.42
C       9.71      16.26      19.62
C       0.65      15.95      21.86
C       9.61      16.85      22.37
C       8.74      17.15      20.14
C       7.79      17.70      19.44
C       1.59      15.40      22.57
C       9.74       5.67      64.80
C       0.69       5.98      62.57
C       9.68       5.06      62.05
C       8.82       4.73      64.29
C       7.88       4.15      64.98
C       1.61       6.57      61.86
C       9.69       1.19      59.14
C       1.13      21.64      58.75
C       0.03      20.80      59.04
C       8.58       0.36      59.42
C       7.39       0.79      59.73
C       2.34      21.20      58.50
C       9.79      20.83      25.11
C       1.12       0.38      24.39
C       0.20       1.23      25.04
C       8.87      21.68      25.77
C       7.79      21.28      26.37
C       2.18       0.78      23.74
C       9.73      12.38      16.72
C       1.07      10.44      16.18
C       9.92       9.63      16.61
C       8.64      11.58      17.13
C       7.50      12.04      17.56
C       2.23       9.97      15.81
C       9.80       9.67      67.54
C       1.10      11.59      66.83
C       0.14      12.42      67.46
C       8.85      10.50      68.19
C       7.76      10.08      68.77
C       2.16      12.01      66.20
C       0.13      15.67      54.25
C       8.76      16.58      56.05
C       9.86      16.46      56.93
C       1.22      15.50      55.14
C       2.39      15.07      54.78
C       7.61      17.12      56.37
C       0.28       6.30      29.93
C       9.15       6.33      27.76
C       0.27       5.55      27.22
C       1.35       5.56      29.38
C       2.40       5.16      30.04
C       8.08       6.65      27.10
C       9.39      15.94      30.14
C       0.42      15.68      27.94
C       9.40      16.58      27.41
C       8.41      16.80      29.60
C       7.45      17.36      30.28
C       1.42      15.20      27.26
C       9.52       6.23      54.32
C       0.64       6.30      56.48
C       9.51       5.54      57.04
C       8.43       5.51      54.89
C       7.39       5.10      54.23
C       1.72       6.62      57.14
C       0.19       4.51      11.82
C       8.79       5.36      13.62
C       9.91       5.28      14.49
C       1.29       4.39      12.69
C       2.48       4.02      12.31
C       7.63       5.83      13.96
C       0.31      17.48      72.36
C       9.16      17.51      70.21
C       0.27      16.74      69.66
C       1.38      16.74      71.80
C       2.43      16.35      72.45
C       8.07      17.82      69.57
C       9.36       4.76      72.58
C       0.41       4.51      70.38
C       9.39       5.42      69.84
C       8.39       5.63      72.03
C       7.43       6.19      72.70
C       1.41       4.02      69.71
C       9.48      17.41      11.88
C       0.62      17.50      14.04
C       9.51      16.72      14.61
C       8.42      16.68      12.46
C       7.37      16.25      11.81
C       1.70      17.83      14.68
C       9.80      15.89      77.00
C       0.24      15.03      79.25
C       9.89      13.69      78.86
C       9.41      14.57      76.64
C       8.81      14.19      75.55
C       0.68      15.40      80.42
C       9.68       6.16       7.22
C       0.29       7.11       5.03
C       9.84       8.43       5.42
C       9.19       7.46       7.56
C       8.47       7.77       8.60
C       0.89       6.79       3.92
C       9.91      15.69       7.28
C       9.57      14.79       5.03
C       9.82      13.44       5.44
C       0.31      14.35       7.66
C       0.88      13.98       8.77
C       9.14      15.16       3.86
C       9.69       6.22      77.28
C       9.23       8.63      77.40
C       9.68       8.72      78.75
C       0.12       6.30      78.66
C       0.58       5.31      79.35
C       8.62       9.54      76.70
C       9.76       4.71      34.57
C       0.22       3.86      36.82
C       9.86       2.51      36.43
C       9.36       3.39      34.21
C       8.75       3.01      33.13
C       0.67       4.22      37.98
C       9.65      17.33      49.65
C       0.29      18.28      47.47
C       9.83      19.60      47.85
C       9.17      18.63      49.99
C       8.44      18.94      51.02
C       0.89      17.96      46.37
C       0.01       4.51      49.71
C       9.58       3.61      47.47
C       9.83       2.26      47.87
C       0.34       3.17      50.09
C       0.91       2.80      51.20
C       9.15       3.98      46.30
C       9.71      17.40      34.84
C       9.24      19.80      34.97
C       9.68      19.89      36.32
C       0.13      17.47      36.22
C       0.60      16.48      36.92
C       8.63      20.70      34.26
C       9.35      20.79      75.84
C       0.11       0.47      76.99
C       9.44       1.28      75.98
C       8.56      21.61      74.98
C       7.70      21.20      74.10
C       0.90       0.93      77.90
C       0.38       1.18       8.26
C       1.28      21.46       9.20
C       0.46      20.65       8.36
C       9.69       0.37       7.27
C       8.88       0.86       6.37
C       2.15      21.04      10.06
C       9.33       9.61      33.40
C       0.11      11.64      34.55
C       9.45      12.46      33.55
C       8.56      10.44      32.55
C       7.69      10.04      31.66
C       0.90      12.10      35.47
C       0.38      12.35      50.69
C       1.29      10.30      51.63
C       0.48       9.48      50.79
C       9.69      11.54      49.70
C       8.87      12.02      48.81
C       2.17       9.88      52.49
C       0.03      10.94       1.10
C       8.97      11.87      83.97
C       9.82      11.08      83.14
C       0.88      10.16       0.27
C       1.83       9.39       0.72
C       8.03      12.65      83.53
C       0.03      22.11      43.54
C       8.97       0.69      41.54
C       9.82      22.26      40.71
C       0.88      21.33      42.71
C       1.83      20.57      43.15
C       8.03       1.47      41.10
H       0.03      15.59      59.51
H       0.09      19.44      61.25
H       0.05      19.05      57.08
H       0.16       6.46      24.65
H       0.10       2.64      22.84
H       0.24       2.96      27.02
H       9.47      15.60      24.83
H       9.77      19.37      22.94
H       9.63      19.15      27.12
H       9.60       6.40      59.65
H       9.71       2.54      61.37
H       9.64       2.95      57.21
H       0.01       4.42      17.07
H       9.92       8.27      18.82
H       0.07       7.87      14.64
H       0.11      17.65      67.09
H       0.02      13.84      65.27
H       0.23      14.15      69.44
H       9.55       4.44      67.27
H       9.84       8.20      65.38
H       9.61       7.98      69.55
H       9.62      17.59      17.21
H       9.79      13.75      18.95
H       9.67      14.14      14.78
H       9.60      18.59      77.48
H       9.86      19.82      73.46
H       0.43      15.82      74.40
H       9.91       3.46       6.67
H       0.46       2.19      10.67
H       0.02       6.20       9.87
H       0.21      18.40       6.74
H       9.88      19.71      10.73
H       9.36      15.71       9.88
H       9.70       3.46      77.67
H       9.39       2.39      73.62
H       9.60       6.39      74.63
H       9.57       7.41      35.05
H       9.83       8.63      31.02
H       0.38       4.64      31.96
H       9.90      14.63      49.10
H       0.41      13.36      53.10
H       9.90      17.37      52.30
H       0.23       7.22      49.17
H       9.92       8.53      53.17
H       9.40       4.53      52.32
H       9.71      14.63      35.24
H       9.42      13.56      31.18
H       9.63      17.56      32.20
H       9.78       9.03      81.44
H       9.90      13.21      81.57
H       0.09      11.24      77.91
H       0.02      13.01       2.73
H       9.86       8.86       2.73
H       9.78      10.93       6.37
H       9.78      20.20      39.01
H       9.89       2.03      39.14
H       0.08       0.06      35.48
H       0.03       1.83      45.17
H       9.86      20.03      45.17
H       9.79      22.10      48.80
N       9.07      15.81      63.78
N       0.96      17.48      62.80
N       7.24      15.02      61.15
N       2.80      18.27      65.42
N       9.11       6.32      20.38
N       0.96       4.59      21.32
N       7.35       7.15      23.05
N       2.72       3.74      18.66
N       0.64      15.70      20.52
N       8.75      17.40      21.47
N       2.43      14.92      23.19
N       6.95      18.18      18.83
N       0.66       6.24      63.90
N       8.84       4.48      62.95
N       2.42       7.09      61.24
N       7.06       3.64      65.59
N       0.95       0.62      58.82
N       8.77      21.38      59.37
N       3.39      20.81      58.29
N       6.35       1.18      60.00
N       0.91      21.40      24.45
N       9.08       0.67      25.69
N       3.11       1.14      23.18
N       6.83      20.93      26.90
N       0.93      11.78      16.27
N       8.79      10.24      17.06
N       3.25       9.56      15.49
N       6.50      12.45      17.94
N       0.91      10.25      66.90
N       9.03      11.84      68.10
N       3.09      12.39      65.65
N       6.81       9.71      69.28
N       8.92      16.20      54.75
N       1.08      15.94      56.42
N       6.61      17.58      56.66
N       3.42      14.69      54.45
N       9.20       6.65      29.08
N       1.28       5.20      28.07
N       7.12       6.92      26.52
N       3.32       4.81      30.63
N       0.37      15.41      29.28
N       8.48      17.09      28.28
N       2.30      14.77      26.67
N       6.61      17.85      30.88
N       0.60       6.59      55.16
N       8.51       5.18      56.20
N       2.67       6.90      57.71
N       6.47       4.74      53.64
N       8.95       4.98      12.33
N       1.15       4.83      13.97
N       6.60       6.26      14.26
N       3.53       3.69      11.97
N       9.22      17.83      71.53
N       1.29      16.39      70.49
N       7.11      18.09      69.00
N       3.36      16.00      73.03
N       0.35       4.24      71.72
N       8.47       5.93      70.71
N       2.29       3.59      69.12
N       6.58       6.69      73.30
N       0.56      17.78      12.71
N       8.50      16.35      13.77
N       2.66      18.12      15.25
N       6.45      15.88      11.23
N       0.20      16.03      78.32
N       9.48      13.59      77.57
N       1.08      15.74      81.44
N       8.27      13.85      74.59
N       0.22       6.08       5.94
N       9.31       8.48       6.67
N       1.41       6.47       2.95
N       7.83       8.05       9.51
N       9.61      15.81       5.95
N       0.24      13.35       6.75
N       8.76      15.51       2.84
N       1.38      13.63       9.75
N       9.28       7.42      76.79
N       0.11       7.51      79.29
N       8.07      10.33      76.07
N       1.00       4.45      79.99
N       0.17       4.86      35.88
N       9.45       2.41      35.14
N       1.08       4.56      38.99
N       8.21       2.67      32.18
N       0.21      17.25      48.37
N       9.30      19.65      49.10
N       1.43      17.65      45.40
N       7.79      19.23      51.92
N       9.63       4.63      48.39
N       0.26       2.17      49.18
N       8.76       4.32      45.27
N       1.42       2.45      52.17
N       9.29      18.60      34.35
N       0.12      18.69      36.86
N       8.08      21.49      33.63
N       1.02      15.62      37.55
N       0.09      21.45      76.83
N       8.69       0.59      75.09
N       1.60       1.34      78.72
N       6.94      20.84      73.32
N       1.16       0.45       9.12
N       9.70      21.35       7.40
N       2.93      20.66      10.82
N       8.17       1.29       5.58
N       0.08      10.27      34.39
N       8.69      11.77      32.65
N       1.60      12.50      36.29
N       6.92       9.68      30.88
N       1.16      11.63      51.55
N       9.71      10.17      49.83
N       2.95       9.51      53.25
N       8.15      12.45      48.03
N       9.08      11.75       0.46
N       0.77      10.27      83.79
N       7.20      13.34      83.15
N       2.69       8.73       1.10
N       9.08       0.57      42.89
N       0.77      21.44      41.36
N       7.20       2.17      40.72
N       2.69      19.90      43.53
