22

O       7.41      10.70      25.07
O       7.72       9.78      27.03
Nd       5.80      11.38      27.26
O       7.44      11.51      29.29
O       5.82      10.06      29.38
Nd       6.38      11.77      23.15
O       4.99       9.50      25.94
O       4.87       9.93      23.74
O       4.77      12.45      25.35
O       4.46      13.37      23.38
O       4.74      11.64      21.12
O       6.36      13.10      21.03
O       7.19      13.65      24.48
O       7.31      13.22      26.67
C       7.92       9.82      25.83
C       7.39      10.03      31.12
C       6.86      10.57      29.85
C       4.64       9.24      24.77
C       4.26      13.33      24.59
C       4.79      13.12      19.29
C       5.32      12.58      20.56
C       7.54      13.91      25.64
