20

O      11.25      10.62       0.88
Nd      12.16       8.72       2.08
O      11.19      10.35      -1.33
Nd      12.20       8.27      -2.08
O      14.19      10.07       1.61
O      13.55       9.29      -0.34
O      14.63       8.09      -2.84
O      13.44       9.62      -3.86
O      13.11       6.36      -0.88
O      13.17       6.63       1.33
O      10.17       6.91      -1.61
O      10.81       7.70       0.34
C       9.87       8.04       3.77
C      10.93      10.96      -0.28
C      14.13      10.15       0.37
C      14.49       8.95      -3.77
C      13.43       6.03       0.28
C      10.23       6.83      -0.37
O       9.73       8.90       2.84
O      10.92       7.37       3.86
