26

H       6.64      -3.88      16.84
H       6.53      -5.61      16.37
H       6.72      -3.30      14.64
H       4.51      -2.50      17.14
H       4.58      -1.91      14.92
H       2.75      -5.74      16.21
H       4.24      -6.70      16.01
H       4.32      -6.11      13.79
H       2.82      -5.14      14.00
H       2.90      -3.26      16.88
H       2.98      -2.67      14.67
H       6.61      -5.03      14.18
C       4.73      -3.58      12.71
C       6.05      -4.62      16.24
C       6.10      -4.22      14.75
C       3.96      -3.26      16.53
C       3.81      -5.68      15.88
C       4.59      -4.66      16.76
C       4.67      -3.98      14.18
C       4.01      -2.86      15.03
C       3.86      -5.28      14.38
C       4.52      -5.06      18.23
O       5.92      -3.49      12.16
O       3.58      -3.35      12.10
O       5.69      -5.29      18.83
O       3.30      -5.14      18.77
