34

H       1.17       6.09      17.21
H       0.38       4.35      21.01
H       0.30       0.68      18.08
H       1.60       4.01      10.91
H       1.46       1.78       9.92
H       0.68       0.04      13.72
H       1.40       5.81      15.19
H       0.49       0.32      15.75
H       0.26       2.12      20.02
H       1.58       5.45      12.85
C       1.08      -0.55      11.21
C       1.04       0.79      11.79
C       0.81       5.35      19.15
C       1.39       3.16      11.55
C       1.31       1.90      10.98
C       0.86       0.94      13.16
C       0.98       2.21      13.78
C       1.24       3.33      12.94
C       0.86       2.41      15.19
C       1.01       3.72      15.74
C       1.27       4.80      14.86
C       1.38       4.60      13.49
C       0.61       1.33      16.08
C       0.50       1.53      17.45
C       0.62       2.80      17.99
C       0.89       3.92      17.15
C       0.47       2.97      19.38
C       0.54       4.24      19.95
C       0.99       5.19      17.77
C       0.77       6.69      19.72
O      -0.09      -1.16      11.05
O       2.30      -1.02      10.97
O      -0.45       7.16      19.96
O       1.93       7.30      19.88
