14

O       3.28      12.30      24.62
C       6.60      14.08      21.79
C       3.45      12.74      23.45
C       5.23      13.91      22.03
H       4.50      14.40      21.39
C       4.88      13.07      23.08
C       7.05      14.89      20.57
C       7.10      12.71      23.57
H       7.84      12.21      24.19
O       8.33      14.89      20.37
O       2.54      12.89      22.58
N       7.53      13.48      22.56
N       5.81      12.46      23.86
O       6.18      15.44      19.89
