14

C      -0.87       3.22      19.28
C      -3.05       1.48      21.84
C      -3.09       3.57      18.78
O       1.46       3.45      19.77
O       0.72       3.96      17.70
O      -4.34       1.45      21.99
O      -2.20       0.98      22.58
N      -3.52       2.82      19.81
N      -1.81       3.80      18.48
C      -2.59       2.25      20.61
H      -0.49       1.96      21.01
H      -3.84       4.05      18.15
C       0.55       3.55      18.89
C      -1.22       2.42      20.35
