14

N       0.45       5.41      24.07
N       2.18       4.46      22.73
C       1.38       5.98      24.87
C       4.53       4.70      23.17
C       2.75       5.82      24.62
C       3.11       5.03      23.54
C       0.91       6.75      26.11
C       0.89       4.68      23.03
O      -0.37       6.73      26.29
O       5.42       4.79      24.07
O       4.73       4.32      21.98
H       3.48       6.28      25.28
O       1.77       7.28      26.82
H       0.15       4.21      22.39
