14

O       5.28      12.15       7.71
O       8.20      15.13       2.83
H       6.49      14.15       4.41
H       9.84      12.06       7.26
C       8.59      13.86       4.81
C       5.45      12.56       6.52
C       7.22      13.69       5.06
C       6.87      12.89       6.14
C       9.06      14.63       3.57
C       9.09      12.54       6.63
N       9.52      13.29       5.60
N       7.81      12.31       6.93
O      10.34      14.66       3.42
O       4.54      12.66       5.65
