14

H       0.47       9.95      17.11
H       3.83      12.05      19.95
N       3.50      10.82      18.30
N       1.79      11.82      19.62
C       2.57      10.25      17.51
C      -0.57      11.57      19.21
C       1.20      10.42      17.76
C       0.85      11.24      18.83
C       3.02       9.49      16.26
O       4.31       9.48      16.07
C       3.07      11.58      19.32
O      -1.49      11.42      18.35
O       2.16       8.99      15.53
O      -0.74      12.02      20.38
