14

O       5.66       1.37      13.58
O      11.46       3.30      11.30
N       6.48       2.70      11.37
O      10.72       3.75       9.22
O       7.80       0.82      14.11
H       9.50       1.81      12.56
H       6.16       3.92       9.70
C       7.41       2.12      12.16
C      10.55       3.38      10.42
C       8.77       2.28      11.90
C       9.13       3.07      10.82
C       6.94       1.35      13.40
C       6.91       3.44      10.33
N       8.19       3.65      10.02
