14

O      -0.18       0.67       5.52
H       1.50       1.71       4.02
C      -1.09       3.40       1.85
N      -1.53       2.63       2.85
N       0.19       3.65       1.56
H      -1.84       3.90       1.22
C      -0.59       2.03       3.63
C       2.55       3.37       1.96
C       0.77       2.20       3.38
C       1.13       3.04       2.33
C      -1.05       1.22       4.84
O      -2.33       1.22       5.04
O       3.46       3.22       2.83
O       2.72       3.81       0.79
