36

C       1.90      11.37      22.23
C       3.43      13.10      13.25
C       2.97      12.97      20.76
C       2.37      11.51      14.72
C       2.57      12.23      19.62
C       2.76      12.25      15.86
C       2.04      10.94      19.85
C       3.30      13.54      15.63
C       2.74      12.71      18.28
C       2.60      11.77      17.20
C       2.32      10.40      17.51
C       3.02      14.08      17.97
C       1.93      10.04      18.80
C       3.41      14.44      16.68
H       1.64       9.02      19.00
H       3.70      15.46      16.48
C       2.55       9.29      16.62
H       1.76      10.63      14.80
C       2.79      15.19      18.86
H       3.58      13.85      20.68
H       3.76      13.40      12.26
H       1.57      11.08      23.22
H       1.24       9.55      21.32
H       4.09      14.92      14.16
C       2.67      13.55      23.12
C       2.66      10.93      12.36
N       2.73       8.39      15.91
N       2.60      16.09      19.57
O       1.55      14.06      23.51
O       3.79      10.42      11.97
O       3.87      13.90      23.52
O       1.47      10.58      11.96
C       2.57      12.58      22.03
C       2.77      11.89      13.45
C       1.69      10.53      21.15
C       3.65      13.95      14.33
