36

C      -0.08       5.25      13.25
C      -1.61       6.98      22.23
C      -1.15       6.85      14.72
C      -0.55       5.39      20.76
C      -0.76       6.11      15.86
C      -0.94       6.13      19.62
C      -0.22       4.82      15.63
C      -1.48       7.42      19.85
C      -0.92       6.59      17.20
C      -0.78       5.65      18.28
C      -0.50       4.28      17.97
C      -1.20       7.96      17.51
H       0.18       2.90      16.48
C      -1.59       8.32      18.80
C      -0.11       3.92      16.68
H      -1.88       9.34      19.00
H       0.06       4.51      20.68
H      -1.76       7.73      14.80
C      -0.97       9.07      16.62
C      -0.73       3.17      18.86
H      -1.94       7.28      23.22
H       0.25       4.96      12.26
H       0.58       3.43      14.16
H      -2.27       8.80      21.32
C      -0.85       7.43      12.36
C      -0.84       4.81      23.12
N      -0.92       2.27      19.57
N      -0.78       9.97      15.91
O       0.27       7.94      11.97
O      -1.97       4.30      23.51
O      -2.05       7.78      11.96
O       0.35       4.46      23.52
C      -0.75       6.46      13.45
C      -0.95       5.77      22.03
C       0.13       4.41      14.33
C      -1.83       7.83      21.14
