600

Zn       7.81       3.03      10.24
Zn       7.81      -6.08      15.54
Zn       7.81       3.07      20.78
Zn      17.28      10.42      13.04
Zn      17.28      19.52       7.74
Zn      17.28      10.38       2.50
Zn      11.13      16.50       2.50
Zn      11.13      16.47      13.04
Zn      11.13       7.35       7.74
Zn       1.66      -3.05      20.78
Zn       1.66      -3.02      10.24
Zn       1.66       6.09      15.54
Zn      11.13      10.42      13.04
Zn      11.13      19.52       7.74
Zn      11.13      10.38       2.50
Zn       1.66       3.03      10.24
Zn       1.66      -6.08      15.54
Zn       1.66       3.07      20.78
Zn       7.81      -3.05      20.78
Zn       7.81      -3.02      10.24
Zn       7.81       6.09      15.54
Zn      17.28      16.50       2.50
Zn      17.28      16.47      13.04
Zn      17.28       7.36       7.74
H      10.98       2.53       9.96
H      13.11       1.24       9.83
H       9.54       2.04      12.73
H       8.11       1.72       7.23
H       8.81       1.59       4.83
H       6.13       4.03       7.73
H      10.98      -6.07      16.12
H      13.11      -5.54      17.29
H       9.54      -3.44      15.15
H       8.11      -8.03      18.17
H       8.80     -10.04      19.49
H       6.13      -8.75      15.93
H      10.98       3.56      20.48
H      13.11       4.31      19.44
H       9.54       1.40      18.68
H       8.11       6.33      21.15
H       8.81       8.47      22.24
H       6.13       4.74      22.91
H       1.51      10.92      13.32
H       3.64      12.21      13.45
H       0.10      11.40      10.56
H      17.58      11.73      16.05
H      18.27      11.86      18.44
H      15.60       9.43      15.56
H       1.51      19.52       7.16
H       3.64      18.98       5.99
H       0.10      16.89       8.13
H      17.58      21.47       5.11
H      18.28      23.48       3.80
H      15.60      22.20       7.34
H       1.51       9.89       2.80
H       3.64       9.13       3.84
H       0.09      12.04       4.59
H      17.58       7.12       2.13
H      18.28       4.98       1.04
H      15.60       8.70       0.38
H       7.96      16.99       2.80
H       5.83      17.75       3.85
H       9.40      14.84       4.59
H      10.83      19.75       2.13
H      10.14      21.90       1.04
H      12.81      18.17       0.38
H       7.96      15.97      13.32
H       5.83      14.68      13.45
H       9.41      15.48      10.55
H      10.83      15.16      16.05
H      10.14      15.03      18.45
H      12.81      17.47      15.55
H       7.96       7.36       7.17
H       5.83       7.90       5.99
H       9.40      10.01       8.13
H      10.83       5.40       5.10
H      10.14       3.39       3.79
H      12.81       4.68       7.35
H      17.43      -3.54      20.48
H      15.30      -4.30      19.44
H      18.85      -1.39      18.70
H       1.36      -6.30      21.16
H       0.67      -8.44      22.24
H       3.34      -4.73      22.90
H      17.44      -2.52       9.96
H      15.30      -1.23       9.83
H      18.85      -2.04      12.73
H       1.36      -1.72       7.23
H       0.67      -1.59       4.84
H       3.34      -4.01       7.72
H      17.43       6.08      16.12
H      15.30       5.55      17.29
H      18.84       3.45      15.15
H       1.36       8.04      18.17
H       0.67      10.05      19.49
H       3.34       8.77      15.94
H       7.96      10.92      13.32
H       5.83      12.21      13.45
H       9.40      11.40      10.55
H      10.83      11.73      16.05
H      10.14      11.86      18.45
H      12.81       9.42      15.55
H       7.96      19.52       7.17
H       5.83      18.98       5.99
H       9.40      16.88       8.13
H      10.83      21.47       5.11
H      10.14      23.49       3.79
H      12.81      22.20       7.35
H       7.96       9.89       2.80
H       5.83       9.13       3.84
H       9.41      12.05       4.60
H      10.83       7.12       2.13
H      10.14       4.98       1.04
H      12.81       8.70       0.38
H      17.43       2.53       9.96
H      15.30       1.24       9.83
H      18.84       2.05      12.72
H       1.36       1.72       7.23
H       0.67       1.59       4.84
H       3.34       4.02       7.72
H      17.43      -6.07      16.12
H      15.30      -5.54      17.29
H      18.85      -3.44      15.15
H       1.36      -8.03      18.17
H       0.67     -10.04      19.48
H       3.34      -8.75      15.94
H      17.44       3.56      20.48
H      15.30       4.31      19.44
H      18.85       1.40      18.69
H       1.36       6.32      21.15
H       0.67       8.46      22.24
H       3.34       4.75      22.90
H      10.98      -3.54      20.48
H      13.11      -4.30      19.44
H       9.54      -1.39      18.69
H       8.11      -6.31      21.15
H       8.80      -8.45      22.24
H       6.13      -4.72      22.90
H      10.98      -2.52       9.96
H      13.11      -1.23       9.83
H       9.54      -2.03      12.73
H       8.11      -1.71       7.23
H       8.81      -1.59       4.83
H       6.13      -4.02       7.73
H      10.98       6.08      16.12
H      13.11       5.55      17.29
H       9.54       3.44      15.15
H       8.11       8.04      18.18
H       8.81      10.06      19.49
H       6.13       8.77      15.93
H       1.51      16.99       2.80
H       3.64      17.75       3.85
H       0.10      14.84       4.58
H      17.58      19.75       2.13
H      18.27      21.89       1.04
H      15.60      18.18       0.38
H       1.51      15.97      13.32
H       3.64      14.68      13.45
H       0.09      15.49      10.56
H      17.58      15.17      16.05
H      18.28      15.04      18.45
H      15.60      17.46      15.56
H       1.51       7.36       7.16
H       3.64       7.90       5.99
H       0.10      10.00       8.14
H      17.58       5.41       5.11
H      18.28       3.39       3.80
H      15.60       4.68       7.34
H       6.66       0.01      10.37
H       6.66      -4.45      18.10
H       6.66       4.47      18.10
H      16.13      13.44      12.91
H      16.13      17.90       5.19
H      16.13       8.98       5.19
H      12.28      17.90       5.18
H      12.29      13.44      12.91
H      12.29       8.98       5.19
H       2.81      -4.45      18.10
H       2.81       0.01      10.37
H       2.81       4.47      18.09
H       9.47       5.73       9.92
H       9.47      19.17      13.35
H       9.47       1.99      23.28
H      18.94       7.71      13.35
H       0.00      -5.72       9.93
H      18.94      11.46       0.00
H       9.47       7.72      13.36
H       9.47      -5.72       9.93
H       9.47      11.46       0.00
H       0.00       5.73       9.93
H      18.94      19.17      13.35
H       0.00       1.98      23.28
C       9.78       0.71      10.05
C      10.98       1.44       9.97
C      12.16       0.71       9.89
C       9.10       3.00      12.99
C       9.08       3.65       7.50
C       8.69       2.52       6.77
C       9.09       2.45       5.43
C       5.43       3.67       8.48
C       9.78      -5.08      17.64
C      10.98      -5.52      17.05
C      12.16      -5.22      17.72
C       9.09      -3.69      14.20
C       9.08      -8.76      16.37
C       8.69      -8.83      17.72
C       9.09      -9.95      18.44
C       5.43      -7.93      15.87
C       9.78       4.39      18.87
C      10.98       4.10      19.54
C      12.16       4.53      18.94
C       9.09       0.70      19.38
C       9.08       5.13      22.69
C       8.69       6.33      22.08
C       9.09       7.52      22.69
C       5.43       4.28      22.22
C       0.31      12.73      13.23
C       1.51      12.01      13.31
C       2.69      12.74      13.39
C      18.58      10.45      10.30
C      18.55       9.80      15.78
C      18.16      10.93      16.51
C      18.56      10.99      17.85
C      14.90       9.78      14.81
C       0.31      18.53       5.64
C       1.51      18.96       6.23
C       2.69      18.66       5.56
C      18.58      17.14       9.09
C      18.55      22.21       6.91
C      18.16      22.27       5.57
C      18.56      23.40       4.84
C      14.90      21.37       7.41
C       0.31       9.06       4.41
C       1.51       9.35       3.74
C       2.69       8.92       4.34
C      18.58      12.74       3.90
C      18.55       8.32       0.59
C      18.16       7.12       1.21
C      18.56       5.93       0.59
C      14.90       9.17       1.06
C       9.16      17.82       4.41
C       7.96      17.53       3.74
C       6.78      17.96       4.34
C       9.85      14.14       3.90
C       9.86      18.56       0.59
C      10.25      19.76       1.21
C       9.85      20.95       0.59
C      13.51      17.70       1.06
C       9.16      14.15      13.23
C       7.96      14.88      13.31
C       6.78      14.15      13.39
C       9.85      16.43      10.29
C       9.86      17.09      15.78
C      10.25      15.96      16.51
C       9.85      15.90      17.85
C      13.51      17.11      14.81
C       9.16       8.35       5.64
C       7.96       7.92       6.23
C       6.78       8.22       5.56
C       9.85       9.75       9.09
C       9.86       4.67       6.90
C      10.25       4.60       5.56
C       9.85       3.48       4.84
C      13.51       5.51       7.41
C      18.63      -4.37      18.87
C      17.43      -4.08      19.54
C      16.25      -4.51      18.94
C       0.36      -0.69      19.38
C       0.39      -5.11      22.69
C       0.78      -6.30      22.08
C       0.38      -7.49      22.69
C       4.04      -4.26      22.22
C      18.63      -0.71      10.06
C      17.43      -1.43       9.97
C      16.25      -0.70       9.89
C       0.36      -2.99      12.99
C       0.39      -3.64       7.50
C       0.78      -2.51       6.77
C       0.38      -2.45       5.44
C       4.04      -3.66       8.47
C      18.63       5.10      17.64
C      17.43       5.53      17.05
C      16.25       5.23      17.72
C       0.36       3.70      14.19
C       0.39       8.77      16.37
C       0.78       8.84      17.72
C       0.38       9.97      18.44
C       4.04       7.94      15.87
C       9.16      12.73      13.23
C       7.96      12.01      13.31
C       6.78      12.74      13.39
C       9.85      10.45      10.29
C       9.86       9.80      15.78
C      10.25      10.93      16.51
C       9.85      11.00      17.85
C      13.51       9.78      14.81
C       9.16      18.53       5.64
C       7.96      18.96       6.23
C       6.78      18.66       5.56
C       9.85      17.13       9.08
C       9.86      22.21       6.91
C      10.25      22.27       5.56
C       9.85      23.40       4.84
C      13.51      21.37       7.42
C       9.16       9.06       4.41
C       7.96       9.35       3.74
C       6.78       8.92       4.34
C       9.85      12.75       3.90
C       9.86       8.32       0.59
C      10.25       7.12       1.21
C       9.85       5.93       0.59
C      13.51       9.17       1.06
C      18.63       0.71      10.05
C      17.43       1.44       9.97
C      16.25       0.71       9.89
C       0.36       3.00      12.99
C       0.39       3.65       7.50
C       0.78       2.52       6.77
C       0.38       2.45       5.44
C       4.04       3.66       8.47
C      18.63      -5.08      17.64
C      17.43      -5.52      17.05
C      16.25      -5.22      17.72
C       0.36      -3.69      14.20
C       0.39      -8.76      16.37
C       0.78      -8.83      17.71
C       0.38      -9.95      18.44
C       4.04      -7.93      15.87
C      18.63       4.39      18.87
C      17.44       4.10      19.54
C      16.25       4.53      18.95
C       0.36       0.70      19.38
C       0.39       5.13      22.69
C       0.78       6.33      22.08
C       0.38       7.51      22.69
C       4.04       4.28      22.22
C       9.78      -4.37      18.87
C      10.98      -4.08      19.54
C      12.16      -4.51      18.94
C       9.09      -0.69      19.38
C       9.08      -5.11      22.69
C       8.69      -6.31      22.08
C       9.09      -7.50      22.69
C       5.43      -4.26      22.22
C       9.78      -0.70      10.06
C      10.98      -1.43       9.97
C      12.16      -0.70       9.89
C       9.09      -2.99      12.99
C       9.08      -3.64       7.50
C       8.69      -2.51       6.77
C       9.09      -2.45       5.43
C       5.43      -3.66       8.48
C       9.78       5.10      17.64
C      10.98       5.53      17.05
C      12.16       5.23      17.72
C       9.10       3.69      14.20
C       9.08       8.77      16.38
C       8.69       8.84      17.72
C       9.09       9.97      18.44
C       5.43       7.94      15.87
C       0.31      17.82       4.41
C       1.51      17.53       3.74
C       2.69      17.96       4.34
C      18.58      14.14       3.90
C      18.55      18.55       0.59
C      18.16      19.75       1.20
C      18.56      20.94       0.59
C      14.90      17.71       1.06
C       0.31      14.15      13.23
C       1.51      14.88      13.31
C       2.69      14.15      13.39
C      18.58      16.44      10.29
C      18.55      17.09      15.78
C      18.16      15.96      16.51
C      18.56      15.90      17.84
C      14.90      17.11      14.81
C       0.31       8.35       5.64
C       1.51       7.92       6.23
C       2.69       8.22       5.56
C      18.58       9.75       9.09
C      18.55       4.68       6.91
C      18.16       4.61       5.57
C      18.56       3.48       4.84
C      14.90       5.51       7.41
C       7.73       0.01      10.24
C       7.73      -4.56      18.16
C       7.73       4.58      18.16
C      17.20      13.44      13.04
C      17.20      18.01       5.12
C      17.20       8.87       5.12
C      11.21      18.01       5.12
C      11.21      13.44      13.04
C      11.21       8.87       5.12
C       1.74      -4.56      18.16
C       1.74       0.01      10.24
C       1.74       4.58      18.16
C       7.99       4.82      12.74
C       7.99      -4.81      12.74
C       7.99       0.01      21.08
C      17.44       8.65      10.53
C      17.44      18.24      10.53
C      17.44      13.44       2.22
C      10.95      13.44       2.20
C      10.95      18.26      10.54
C      10.95       8.63      10.54
C       1.50       0.01      21.06
C       1.50      -4.79      12.75
C       1.50       4.80      12.75
C       9.47       5.19       8.98
C       9.47      18.63      14.29
C       9.47       3.07      23.28
C      18.94       8.26      14.29
C      18.94      -5.19       8.99
C       0.00      10.38       0.00
C       9.47       8.26      14.30
C       9.47      -5.18       8.99
C       9.47      10.38       0.00
C       0.00       5.19       8.99
C       0.00      18.63      14.29
C      18.94       3.07      23.28
C       4.74       2.79      10.31
C       4.74      -5.90      15.71
C       4.74       3.12      20.54
C      14.20      10.65      12.97
C      14.20      19.35       7.58
C      14.20      10.32       2.74
C      14.20      16.55       2.74
C      14.20      16.23      12.97
C      14.20       7.54       7.57
C       4.74      -3.10      20.54
C       4.74      -2.79      10.31
C       4.74       5.91      15.71
N       8.46       1.14      10.17
N       8.39       3.72      12.07
N       8.84       4.01       8.82
N       5.87       3.12       9.65
N       8.46      -5.19      17.21
N       8.39      -4.84      14.03
N       8.84      -7.80      15.40
N       5.87      -6.63      15.76
N       8.46       4.07      19.17
N       8.39       1.14      20.46
N       8.84       3.80      22.34
N       5.87       3.54      21.15
N      17.93      12.31      13.11
N      17.85       9.74      11.21
N      18.31       9.43      14.46
N      15.34      10.34      13.64
N      17.93      18.64       6.07
N      17.86      18.28       9.25
N      18.31      21.24       7.89
N      15.34      20.08       7.51
N      17.93       9.38       4.11
N      17.86      12.31       2.83
N      18.31       9.65       0.94
N      15.34       9.90       2.13
N      10.48      17.50       4.11
N      10.55      14.57       2.81
N      10.10      17.23       0.94
N      13.07      16.97       2.13
N      10.48      14.57      13.11
N      10.55      17.16      11.21
N      10.10      17.45      14.46
N      13.07      16.56      13.63
N      10.48       8.24       6.07
N      10.55       8.60       9.25
N      10.10       5.64       7.88
N      13.07       6.80       7.52
N       1.01      -4.06      19.17
N       1.09      -1.13      20.46
N       0.63      -3.78      22.34
N       3.61      -3.52      21.15
N       1.01      -1.13      10.17
N       1.09      -3.70      12.07
N       0.63      -4.01       8.83
N       3.61      -3.10       9.64
N       1.01       5.20      17.21
N       1.09       4.84      14.03
N       0.63       7.81      15.39
N       3.61       6.65      15.77
N      10.48      12.31      13.11
N      10.55       9.73      11.21
N      10.10       9.44      14.46
N      13.07      10.33      13.63
N      10.48      18.64       6.07
N      10.55      18.29       9.25
N      10.10      21.24       7.89
N      13.07      20.08       7.52
N      10.48       9.38       4.11
N      10.55      12.31       2.82
N      10.10       9.64       0.94
N      13.07       9.91       2.13
N       1.01       1.14      10.17
N       1.09       3.71      12.07
N       0.63       4.01       8.82
N       3.61       3.11       9.64
N       1.01      -5.19      17.21
N       1.09      -4.83      14.03
N       0.63      -7.79      15.39
N       3.61      -6.63      15.77
N       1.01       4.07      19.17
N       1.09       1.14      20.45
N       0.63       3.80      22.34
N       3.61       3.54      21.15
N       8.46      -4.06      19.17
N       8.39      -1.12      20.47
N       8.84      -3.78      22.34
N       5.87      -3.52      21.15
N       8.46      -1.13      10.17
N       8.39      -3.71      12.07
N       8.84      -4.00       8.82
N       5.87      -3.11       9.65
N       8.46       5.20      17.21
N       8.39       4.85      14.03
N       8.84       7.81      15.40
N       5.87       6.65      15.76
N      17.93      17.50       4.11
N      17.86      14.57       2.83
N      18.31      17.23       0.94
N      15.34      16.97       2.13
N      17.93      14.57      13.11
N      17.86      17.15      11.21
N      18.31      17.45      14.45
N      15.34      16.55      13.64
N      17.93       8.24       6.07
N      17.85       8.61       9.25
N      18.31       5.64       7.89
N      15.34       6.80       7.51
N       7.23       5.86      12.14
N       7.23      -5.85      12.13
N       7.23       0.01      22.29
N      16.66       7.61      11.13
N      16.66      19.27      11.13
N      16.66      13.44       1.03
N      11.71      13.44       0.99
N      11.71      19.30      11.15
N      11.71       7.59      11.14
N       2.28       0.01      22.25
N       2.28      -5.83      12.15
N       2.28       5.84      12.15
N       4.74       2.16      11.59
N       4.74      -4.48      15.61
N       4.74       2.33      19.36
N      14.20      11.28      11.69
N      14.20      17.92       7.67
N      14.20      11.11       3.93
N      14.20      15.76       3.92
N      14.20      15.60      11.69
N      14.20       8.96       7.67
N       4.74      -2.31      19.36
N       4.74      -2.15      11.59
N       4.74       4.49      15.61
O       6.93       5.73      10.93
O       5.85       1.91      12.10
O       6.94      -6.84      12.84
O       5.85      -3.91      15.58
O       6.94       1.12      22.78
O       5.85       2.02      18.88
O      16.36       7.74      12.33
O      15.31      11.55      11.18
O      16.36      20.25      10.42
O      15.31      17.34       7.69
O      16.36      12.33       0.54
O      15.30      11.42       4.42
O      12.00      14.54       0.49
O      13.09      15.45       4.40
O      12.00      19.17      12.36
O      13.09      15.34      11.18
O      12.01       6.60      10.43
O      13.09       9.53       7.70
O       2.58      -1.10      22.75
O       3.64      -2.00      18.87
O       2.59      -5.69      10.95
O       3.64      -1.88      12.10
O       2.58       6.82      12.87
O       3.64       3.91      15.59
O      12.01       7.71      12.35
O      13.09      11.54      11.18
O      12.00      20.29      10.44
O      13.09      17.35       7.70
O      12.00      12.32       0.50
O      13.09      11.43       4.40
O       2.58       5.71      10.95
O       3.64       1.89      12.11
O       2.58      -6.81      12.86
O       3.64      -3.90      15.59
O       2.58       1.12      22.74
O       3.64       2.02      18.86
O       6.94      -1.09      22.79
O       5.85      -2.00      18.88
O       6.94      -5.73      10.92
O       5.85      -1.90      12.10
O       6.93       6.84      12.85
O       5.85       3.92      15.58
O      16.36      14.54       0.53
O      15.31      15.45       4.41
O      16.36      19.14      12.33
O      15.30      15.33      11.18
O      16.36       6.63      10.41
O      15.30       9.54       7.69
