11

N      13.83       5.51       8.89
N      14.04       6.74       8.40
N      14.18       6.61       7.07
C      13.83       4.59       7.88
C      14.05       5.30       6.70
C      13.62       3.17       8.26
O      13.71       2.92       9.52
O      13.35       2.29       7.40
C      14.22       4.98       5.25
O      14.48       5.98       4.49
O      14.09       3.79       4.84
