15

C       6.80       1.33      10.80
H       5.53       4.63       6.83
H       4.36       1.42       9.54
O       7.31       2.99       9.16
O       3.51       3.08       7.64
O       7.90       5.70       7.06
O       9.28       3.99       7.70
O       7.67       1.87      11.54
O       6.23       0.20      10.91
C       5.74       3.92       7.63
C       6.99       3.84       8.15
C       6.35       2.15       9.63
C       5.08       2.13       9.13
C       4.68       3.05       8.09
C       8.17       4.58       7.61
