15

H       6.17       6.75       6.03
H       7.34       9.96       3.32
O       4.40       8.39       3.70
O       8.20       8.30       5.22
O       3.81       5.68       5.80
O       2.42       7.39       5.16
C       5.97       7.45       5.23
C       4.72       7.54       4.71
C       5.36       9.22       3.23
C       6.62       9.25       3.73
C       7.02       8.32       4.77
C       3.54       6.80       5.25
C       4.90      10.05       2.06
O       4.03       9.51       1.32
O       5.47      11.18       1.95
