9

C       2.78       8.35      12.06
Ag      -0.00       8.36      10.29
C       0.09      10.80       7.76
C      -2.80       8.35      12.05
N       1.98       8.43      11.19
N       0.13       9.94       8.55
N      -1.99       8.28      11.19
N      -0.14       6.77       8.55
C      -0.10       5.91       7.76
