516

Zn      27.90      13.94      19.55
Zn      27.90      13.95       8.34
Zn      19.56       0.00      13.95
Zn       8.34       0.00      13.95
Zn      13.95      19.55      27.89
Zn      13.95       8.34       0.01
Zn       0.00      13.94      22.29
Zn       0.00      13.96       5.61
Zn      13.95       5.61       0.00
Zn      13.95      22.29      27.89
Zn       5.61       0.00      13.95
Zn      22.29       0.00      13.95
H       3.02      10.90      23.04
H       4.77       9.14      23.06
H       0.66      15.90      17.41
H       0.70      15.99      14.90
H      24.88      16.99      23.04
H      23.13      18.75      23.06
H      27.24      11.99      17.41
H      27.19      11.90      14.90
H      24.88      10.90       4.85
H      23.13       9.14       4.83
H      27.24      15.91      10.48
H      27.19      15.99      12.99
H       3.02      16.99       4.85
H       4.77      18.76       4.83
H       0.66      11.99      10.48
H       0.70      11.90      12.99
H      23.08       3.03      10.90
H      23.08       4.78       9.13
H      23.08      24.86      16.99
H      23.08      23.12      18.77
H       4.82      24.87      10.90
H       4.81      23.12       9.13
H       4.82       3.03      16.99
H       4.81       4.78      18.77
H      10.90      23.04       3.02
H       9.14      23.06       4.77
H      15.91      17.41       0.66
H      15.99      14.90       0.70
H      17.00      23.04      24.88
H      18.76      23.06      23.12
H      11.99      17.41      27.24
H      11.90      14.90      27.19
H      10.90       4.85      24.88
H       9.14       4.83      23.12
H      15.91      10.48      27.24
H      15.99      12.99      27.19
H      17.00       4.85       3.02
H      18.76       4.83       4.77
H      11.99      10.48       0.66
H      11.90      12.99       0.70
H      24.86      16.98      18.76
H      23.08      18.73      18.76
H       3.04      10.91      18.76
H       4.81       9.17      18.76
H      24.86      10.91       9.13
H      23.08       9.17       9.14
H       3.04      16.98       9.13
H       4.81      18.73       9.14
H      16.99       9.13       3.04
H      18.73       9.14       4.82
H      10.91       9.13      24.86
H       9.17       9.14      23.08
H      10.91      18.76       3.04
H       9.17      18.76       4.81
H      16.99      18.76      24.85
H      18.73      18.76      23.08
H       9.10      24.86      10.92
H       9.12      23.09       9.17
H       9.10       3.04      16.97
H       9.12       4.80      18.73
H      18.80      24.86      16.97
H      18.78      23.09      18.72
H      24.43       1.95      14.62
H      26.94       2.04      14.66
H      18.80       3.04      10.93
H      18.78       4.80       9.17
H      24.43      25.94      13.28
H      26.94      25.86      13.24
H      24.86      16.99       4.81
H      23.11      18.76       4.81
H       3.04      10.91       4.81
H       4.78       9.13       4.81
H       3.04      16.99      23.08
H       4.78      18.76      23.08
H      24.86      10.91      23.08
H      23.11       9.13      23.09
H       4.85      24.87      16.99
H       4.83      23.12      18.75
H      10.48      27.25      11.99
H      12.99      27.21      11.90
H       4.85       3.02      10.91
H       4.83       4.78       9.15
H      10.48       0.65      15.91
H      12.99       0.69      16.00
H      23.05       3.02      16.99
H      23.07       4.78      18.75
H      17.41       0.67      11.99
H      14.90       0.71      11.91
H      23.05      24.87      10.91
H      23.07      23.12       9.14
H      17.41      27.23      15.90
H      14.90      27.18      15.99
H      16.99       4.81      24.86
H      18.76       4.81      23.12
H      10.91       4.81       3.04
H       9.13       4.81       4.78
H      16.99      23.08       3.03
H      18.76      23.08       4.78
H      10.91      23.08      24.86
H       9.13      23.08      23.12
H       3.05      10.93       9.10
H       4.81       9.18       9.12
H      25.94      13.29       3.46
H      25.85      13.25       0.95
H      24.85      16.97       9.10
H      23.09      18.72       9.12
H       1.96      14.61       3.46
H       2.04      14.65       0.95
H       3.05      16.97      18.80
H       4.81      18.72      18.78
H      25.94      14.61      24.43
H      25.85      14.65      26.94
H      24.85      10.93      18.80
H      23.09       9.17      18.78
H       1.96      13.29      24.43
H       2.04      13.25      26.94
H      10.93      18.80      24.85
H       9.18      18.78      23.09
H      13.29      24.43       1.96
H      13.25      26.94       2.04
H      16.96      18.80       3.04
H      18.72      18.78       4.81
H      14.61      24.43      25.94
H      14.65      26.94      25.85
H      16.96       9.10      24.85
H      18.72       9.12      23.09
H      14.61       3.46       1.96
H      14.65       0.95       2.04
H      10.93       9.10       3.04
H       9.18       9.12       4.81
H      13.29       3.46      25.94
H      13.25       0.95      25.85
H      18.77       3.04      16.98
H      18.76       4.82      18.72
H      18.77      24.85      10.92
H      18.76      23.08       9.17
H       9.13       3.04      10.92
H       9.13       4.82       9.17
H       3.46      25.94      14.60
H       0.95      25.85      14.64
H       9.13      24.85      16.98
H       9.13      23.08      18.72
H       3.46       1.96      13.30
H       0.95       2.05      13.26
H       6.97       8.74      22.67
H      20.93      19.16      22.67
H      20.93       8.74       5.23
H       6.97      19.16       5.23
H      22.68       6.97       8.73
H      22.68      20.92      19.16
H       5.22      20.93       8.73
H       5.22       6.97      19.17
H       8.73      22.68       6.97
H      19.17      22.68      20.92
H       8.73       5.22      20.93
H      19.17       5.22       6.97
H      20.92      19.17       5.21
H       6.98       8.72       5.21
H       6.98      19.17      22.68
H      20.92       8.72      22.68
H       5.22      20.92      19.17
H       5.22       6.98       8.73
H      22.67       6.98      19.17
H      22.67      20.92       8.73
H      19.16       5.22      20.92
H       8.73       5.22       6.98
H      19.16      22.68       6.98
H       8.73      22.68      20.92
C       3.42      10.52      22.11
C       4.41       9.54      22.12
C       0.36      15.05      16.80
C       0.38      15.09      15.41
C      24.48      17.38      22.11
C      23.49      18.36      22.12
C      27.53      12.84      16.80
C      27.52      12.81      15.41
C      24.48      10.52       5.78
C      23.49       9.54       5.78
C      27.53      15.05      11.09
C      27.52      15.09      12.48
C       3.42      17.38       5.78
C       4.41      18.36       5.78
C       0.36      12.85      11.09
C       0.38      12.81      12.48
C      22.15       3.43      10.52
C      22.14       4.41       9.53
C      22.15      24.47      17.38
C      22.14      23.48      18.36
C       5.75      24.47      10.52
C       5.76      23.48       9.53
C       5.75       3.43      17.38
C       5.76       4.41      18.36
C      10.52      22.11       3.42
C       9.54      22.12       4.41
C      15.05      16.80       0.36
C      15.09      15.41       0.38
C      17.38      22.11      24.47
C      18.36      22.12      23.48
C      12.85      16.80      27.53
C      12.81      15.41      27.52
C      10.52       5.78      24.47
C       9.54       5.78      23.48
C      15.05      11.09      27.53
C      15.09      12.48      27.52
C      17.38       5.78       3.43
C      18.36       5.78       4.41
C      12.85      11.09       0.36
C      12.81      12.48       0.38
C      24.48      17.38      19.70
C      23.49      18.36      19.70
C       3.42      10.51      19.70
C       4.41       9.53      19.70
C      24.48      10.52       8.20
C      23.49       9.53       8.19
C       3.42      17.38       8.20
C       4.41      18.36       8.19
C      17.39       8.20       3.43
C      18.37       8.19       4.41
C      10.51       8.20      24.47
C       9.53       8.19      23.48
C      10.51      19.70       3.42
C       9.53      19.70       4.41
C      17.39      19.70      24.47
C      18.37      19.70      23.48
C       8.17      24.47      10.52
C       8.17      23.49       9.53
C       8.17       3.42      17.38
C       8.17       4.41      18.36
C      19.73      24.47      17.38
C      19.73      23.49      18.36
C      25.04       1.10      14.32
C      26.43       1.14      14.33
C      19.73       3.43      10.52
C      19.73       4.41       9.53
C      25.04      26.79      13.58
C      26.43      26.76      13.57
C      24.46      17.37       5.75
C      23.48      18.36       5.75
C       3.44      10.52       5.75
C       4.42       9.54       5.75
C       3.44      17.37      22.15
C       4.42      18.36      22.14
C      24.46      10.52      22.15
C      23.48       9.53      22.14
C       5.78      24.47      17.37
C       5.78      23.48      18.35
C      11.09      27.54      12.84
C      12.48      27.53      12.80
C       5.78       3.43      10.52
C       5.78       4.42       9.54
C      11.09       0.36      15.05
C      12.48       0.37      15.09
C      22.12       3.43      17.37
C      22.12       4.42      18.36
C      16.80       0.37      12.85
C      15.41       0.38      12.81
C      22.12      24.47      10.52
C      22.12      23.48       9.54
C      16.80      27.53      15.05
C      15.41      27.51      15.09
C      17.37       5.75      24.46
C      18.36       5.75      23.48
C      10.53       5.75       3.43
C       9.54       5.75       4.42
C      17.37      22.15       3.43
C      18.36      22.14       4.41
C      10.53      22.15      24.46
C       9.54      22.14      23.48
C       3.43      10.52       8.16
C       4.41       9.54       8.17
C      26.79      13.58       2.86
C      26.76      13.57       1.47
C      24.46      17.37       8.16
C      23.48      18.36       8.17
C       1.10      14.31       2.86
C       1.14      14.32       1.47
C       3.43      17.37      19.73
C       4.41      18.36      19.73
C      26.79      14.31      25.04
C      26.76      14.32      26.43
C      24.46      10.52      19.73
C      23.48       9.53      19.73
C       1.10      13.58      25.04
C       1.14      13.57      26.43
C      10.53      19.73      24.47
C       9.54      19.73      23.48
C      13.58      25.04       1.10
C      13.57      26.43       1.14
C      17.37      19.73       3.43
C      18.36      19.73       4.41
C      14.31      25.04      26.79
C      14.32      26.43      26.75
C      17.37       8.16      24.47
C      18.36       8.17      23.49
C      14.31       2.86       1.10
C      14.32       1.47       1.14
C      10.53       8.16       3.43
C       9.54       8.17       4.41
C      13.58       2.86      26.79
C      13.57       1.47      26.75
C      19.70       3.43      17.38
C      19.70       4.42      18.36
C      19.70      24.47      10.52
C      19.70      23.48       9.54
C       8.20       3.43      10.52
C       8.19       4.42       9.54
C       2.86      26.79      14.31
C       1.47      26.75      14.32
C       8.20      24.47      17.38
C       8.19      23.48      18.36
C       2.86       1.10      13.59
C       1.47       1.14      13.58
C       0.00      13.95      14.69
C       0.00      13.95      13.21
C      14.69       0.00      13.95
C      13.21       0.00      13.95
C      13.95      14.69       0.00
C      13.95      13.21       0.00
C       0.00      13.95      27.16
C       0.00      13.95       0.74
C      13.95       0.74       0.00
C      13.95      27.16      27.90
C       0.74       0.00      13.95
C      27.16       0.00      13.95
C       1.85      12.07      20.92
C       2.92      11.02      20.90
C       4.92       9.02      20.91
C       5.97       7.98      20.92
C      26.05      15.82      20.92
C      24.98      16.87      20.90
C      22.97      18.87      20.91
C      21.93      19.92      20.92
C      26.05      12.08       6.98
C      24.98      11.02       6.99
C      22.97       9.02       6.99
C      21.93       7.98       6.98
C       1.85      15.82       6.98
C       2.92      16.88       6.99
C       4.92      18.87       6.98
C       5.97      19.92       6.98
C      20.93       1.87      12.09
C      20.94       2.92      11.02
C      20.93       4.92       9.02
C      20.93       5.97       7.97
C      20.93      26.03      15.81
C      20.94      24.97      16.87
C      20.93      22.97      18.88
C      20.93      21.92      19.92
C       6.97      26.03      12.09
C       6.96      24.97      11.02
C       6.97      22.98       9.02
C       6.97      21.93       7.97
C       6.97       1.87      15.81
C       6.96       2.92      16.87
C       6.97       4.92      18.88
C       6.97       5.97      19.92
C      12.08      20.92       1.85
C      11.02      20.90       2.92
C       9.02      20.91       4.93
C       7.97      20.92       5.98
C      15.82      20.92      26.04
C      16.88      20.91      24.98
C      18.88      20.91      22.97
C      19.93      20.92      21.92
C      12.08       6.98      26.04
C      11.02       6.99      24.98
C       9.02       6.98      22.97
C       7.97       6.98      21.92
C      15.82       6.98       1.86
C      16.88       6.99       2.92
C      18.88       6.99       4.93
C      19.93       6.98       5.98
C      26.02      15.81       6.97
C      24.97      16.87       6.96
C      22.97      18.88       6.96
C      21.92      19.92       6.97
C       1.87      12.09       6.97
C       2.93      11.03       6.96
C       4.93       9.02       6.96
C       5.98       7.97       6.97
C       1.87      15.80      20.93
C       2.93      16.87      20.94
C       4.93      18.87      20.93
C       5.98      19.92      20.93
C      26.02      12.09      20.93
C      24.97      11.03      20.94
C      22.97       9.02      20.93
C      21.92       7.97      20.93
C       6.98      26.03      15.82
C       6.99      24.97      16.87
C       6.98      22.97      18.87
C       6.98      21.92      19.92
C       6.98       1.86      12.08
C       6.99       2.92      11.03
C       6.98       4.93       9.03
C       6.98       5.98       7.98
C      20.92       1.86      15.82
C      20.91       2.92      16.87
C      20.91       4.93      18.87
C      20.92       5.98      19.92
C      20.92      26.04      12.08
C      20.91      24.97      11.02
C      20.91      22.97       9.03
C      20.92      21.92       7.98
C      15.80       6.97      26.03
C      16.86       6.96      24.97
C      18.87       6.96      22.97
C      19.92       6.97      21.92
C      12.10       6.97       1.87
C      11.03       6.96       2.93
C       9.03       6.96       4.93
C       7.98       6.97       5.97
C      15.80      20.93       1.87
C      16.86      20.94       2.93
C      18.87      20.93       4.92
C      19.92      20.93       5.97
C      12.10      20.93      26.02
C      11.03      20.94      24.97
C       9.03      20.93      22.97
C       7.98      20.93      21.92
C       6.97       7.96      21.90
C      20.93      19.93      21.90
C      20.93       7.97       5.99
C       6.97      19.93       5.99
C      21.91       6.97       7.96
C      21.91      20.92      19.93
C       5.99      20.92       7.96
C       5.99       6.97      19.93
C       7.96      21.91       6.97
C      19.94      21.91      20.92
C       7.96       5.99      20.92
C      19.94       5.99       6.97
C      20.92      19.94       5.98
C       6.98       7.96       5.98
C       6.98      19.94      21.91
C      20.92       7.95      21.91
C       5.99      20.92      19.94
C       5.99       6.98       7.96
C      21.91       6.98      19.94
C      21.91      20.92       7.96
C      19.93       5.99      20.92
C       7.96       5.99       6.98
C      19.93      21.91       6.98
C       7.96      21.91      20.92
N       0.00      13.95      17.49
N       0.00      13.95      10.41
N      17.49       0.00      13.95
N      10.41       0.00      13.95
N      13.95      17.49      27.89
N      13.95      10.41       0.00
N       0.00      13.95      24.36
N       0.00      13.95       3.54
N      13.95       3.54       0.00
N      13.95      24.36      27.89
N       3.54       0.00      13.95
N      24.36       0.00      13.95
O       1.42      12.48      19.79
O      26.48      15.41      19.79
O      26.48      12.48       8.11
O       1.42      15.41       8.11
O      19.79       1.46      12.49
O      19.79      26.44      15.41
O       8.11      26.44      12.49
O       8.11       1.46      15.41
O      12.48      19.79       1.42
O      15.41      19.79      26.46
O      12.48       8.11      26.48
O      15.41       8.11       1.43
O      26.44      15.40      22.06
O       1.46      12.49      22.06
O      26.44      12.49       5.84
O       1.46      15.41       5.84
O      15.41       5.84       1.46
O      12.49       5.84      26.44
O      12.49      22.06       1.46
O      15.41      22.06      26.44
O       5.84      26.44      12.51
O       5.84       1.46      15.39
O      22.06      26.43      15.38
O      22.06       1.46      12.51
O      26.43      15.41       8.11
O       1.46      12.49       8.11
O       1.46      15.41      19.78
O      26.43      12.49      19.78
O       8.11      26.46      15.41
O       8.11       1.44      12.49
O      19.79       1.43      15.41
O      19.79      26.46      12.49
O      15.41       8.11      26.44
O      12.49       8.11       1.46
O      15.41      19.78       1.46
O      12.49      19.78      26.43
O       1.47      12.53       5.84
O      26.43      15.38       5.84
O       1.47      15.37      22.05
O      26.43      12.51      22.06
O      12.53      22.05      26.43
O      15.36      22.05       1.47
O      15.36       5.84      26.43
O      12.53       5.84       1.47
O      22.06       1.46      15.41
O      22.06      26.44      12.49
O       5.84       1.46      12.49
O       5.84      26.44      15.40
