54

H      15.84      12.95      17.48
H      13.17      12.33      20.79
H      17.40      11.63      21.27
H      13.52      13.17      22.94
H      16.64       5.01      25.95
H      15.35       7.75      22.91
H      15.78       9.09      26.99
H      16.26       9.87      22.59
H       9.20      13.89      27.00
H      11.51      10.51      25.70
H      12.92      14.52      24.94
H      13.79      10.27      26.09
O      19.09      11.69      19.35
O      18.25      12.61      17.50
O      13.43      13.64      17.11
O      12.06      12.59      18.59
C      18.10      12.18      18.71
O      16.96       5.53      28.32
O      16.69       4.13      23.58
O      16.25       7.55      28.96
C      16.75      12.27      19.32
C      15.67      12.68      18.52
C      14.38      12.69      19.06
C      14.18      12.35      20.40
C      15.26      11.99      21.23
C      16.55      11.93      20.67
C      13.22      13.01      18.19
C      14.96      11.59      22.63
C      13.99      12.29      23.37
O      11.56      16.62      25.38
O       9.77      16.25      26.67
O       8.36      11.62      27.75
O       9.20       9.98      26.42
O      15.31       5.36      22.25
C      16.49       6.70      28.04
C      16.22       7.02      26.61
C      16.34       6.01      25.65
C      16.02       6.28      24.32
C      15.63       7.57      23.94
C      15.56       8.61      24.88
C      15.84       8.32      26.23
C      16.02       5.18      23.31
C      15.11       9.94      24.42
C      15.53      10.43      23.17
C      10.79      15.81      26.00
C      11.04      14.34      25.96
C      10.08      13.48      26.53
C      10.26      12.10      26.43
C      11.41      11.59      25.81
C      12.40      12.44      25.29
C      12.19      13.82      25.35
C       9.20      11.17      26.91
C      13.56      11.82      24.61
C      14.14      10.66      25.14
