54

H      20.94       9.01      14.85
H      22.84       5.17      14.74
H      22.66       7.39      18.45
H      22.25       5.14      19.13
H      28.21      -0.13      14.39
H      25.00       0.36      17.19
H      27.10       3.83      15.68
H      24.82       4.54      15.73
H      21.30       1.37      23.69
H      20.93       3.44      19.95
H      24.82       2.20      21.36
H      24.91       1.76      19.02
O      20.78       7.87      12.68
O      21.94       5.99      12.50
O      21.51       9.59      18.72
O      20.89      10.52      16.73
O      27.08      -2.22      14.98
O      25.56      -2.06      16.59
O      28.92       3.75      13.97
O      29.66       1.63      13.57
C      21.36       9.56      17.45
C      21.77       8.33      16.73
C      21.48       8.22      15.36
C      21.87       7.08      14.65
C      22.56       6.05      15.31
C      22.84       6.13      16.69
C      22.44       7.28      17.39
C      23.49       4.99      17.37
C      23.04       4.57      18.63
C      21.52       6.97      13.22
O      25.22       0.89      23.45
O      23.37       0.77      24.78
O      18.74       3.10      21.22
C      28.85       2.48      14.10
C      27.77       1.91      14.95
C      27.59       0.53      14.99
C      26.59      -0.02      15.80
C      25.78       0.81      16.58
C      25.94       2.21      16.54
C      26.94       2.75      15.72
C      25.00       3.07      17.30
C      24.48       4.23      16.72
C      26.40      -1.50      15.80
C      23.98       1.08      23.69
C      23.15       1.73      22.63
C      21.77       1.80      22.81
C      20.97       2.43      21.84
C      21.57       2.98      20.70
C      22.96       2.90      20.50
C      23.74       2.26      21.48
C      23.54       3.41      19.24
C      24.53       2.67      18.57
C      19.50       2.46      22.04
O      18.99       1.84      23.03
