12

Zn       6.54       5.25      13.11
N       9.34       4.74      13.61
N       8.55       5.46      12.91
O       6.00       7.22      13.18
C       4.82       7.72      13.28
O       6.34       3.21      13.13
O       6.03       5.12      11.26
C       9.01       5.91      11.63
O       6.30       5.31      15.04
C       5.26       2.48      13.25
C       4.85       5.00      10.76
C       5.23       5.22      15.77
