28

Zn      17.02      10.47      15.04
C      18.93      10.84      16.65
N      16.92      12.51      14.65
N      16.06      19.46      13.44
N      17.35       8.40      14.77
H      16.19      12.82      16.57
H      15.87      15.26      16.29
H      17.39      14.81      12.24
H      17.62      12.38      12.70
H      14.70      16.95      15.25
H      14.46      19.37      14.75
H      17.69      19.31      12.17
H      18.12      16.91      12.61
O      14.95      10.19      15.20
O      17.71      10.61      17.02
C      14.78      10.06      13.92
C      16.44      13.31      15.62
C      16.26      14.68      15.45
C      16.61      15.26      14.22
C      17.12      14.42      13.22
C      17.25      13.06      13.47
C      16.44      16.71      13.97
C      15.40      17.43      14.58
C      15.26      18.79      14.29
C      17.05      18.76      12.86
C      17.29      17.40      13.10
C      17.09       7.65      15.86
C      17.64       7.77      13.62
