28

Zn       9.15       0.72       5.31
C      11.41       0.31       4.20
N       9.24       2.77       4.92
N      10.04       9.74       3.69
N       8.84      -1.35       5.03
C       9.71       3.59       5.89
C       9.86       4.96       5.71
C       9.51       5.53       4.48
C       9.01       4.68       3.48
C       8.91       3.32       3.73
C       9.68       6.98       4.22
C      10.71       7.72       4.83
C      10.84       9.07       4.54
C       9.05       9.03       3.12
C       8.82       7.67       3.35
C       9.09      -2.09       6.12
C       8.56      -1.98       3.87
O      11.23       0.43       5.47
O       8.43       0.85       7.28
H       9.95       3.11       6.84
H      10.24       5.54       6.54
H       8.74       5.06       2.50
C       7.21       1.10       6.91
H       8.55       2.63       2.97
H      11.41       7.24       5.51
H      11.64       9.66       5.00
H       7.99       7.17       2.86
H       8.40       9.57       2.43
