13

O      10.76      11.03       4.66
C       8.54      12.08       0.53
H       7.52      10.17       0.75
C       8.84      10.76       2.42
C       9.68      11.84       2.70
C       8.08      12.46      -0.83
S       9.67      13.02       1.43
C       8.19      10.90       1.19
O       7.85      13.68      -1.11
O       7.96      11.48      -1.63
O      11.17      13.14       3.99
H       8.76       9.91       3.10
C      10.58      12.02       3.86
