13

C       3.72      15.73      11.47
C       2.12      14.97       7.99
C       2.58      15.45       9.31
O       1.51      15.79       7.23
S       3.82      14.61      10.16
H       2.56      17.49      11.98
O       5.27      14.50      12.76
H       1.31      17.19       9.64
C       2.09      16.54      10.03
C       2.74      16.70      11.27
C       4.62      15.59      12.63
O       2.37      13.75       7.70
O       4.73      16.58      13.43
