13

O      10.30       0.12       7.96
O       6.88       1.71      13.57
C       7.63       2.54      10.91
C       7.91       1.31      11.51
O       9.79       2.14       7.15
H       7.02       3.29      11.39
C       7.47       0.84      12.85
C       8.21       2.65       9.63
H       8.15       3.52       8.99
C       8.94       1.51       9.29
C       9.70       1.24       8.07
S       8.89       0.31      10.52
O       7.71      -0.37      13.16
