13

O       1.34       2.18       7.57
H       2.11       6.26      11.51
C       1.21       3.42       7.82
C       2.13       5.36      10.89
C       2.75       4.19      11.34
O       3.35       4.91      13.49
C       3.35       3.94      12.67
C       1.76       3.95       9.09
S       2.67       2.93      10.16
O       0.63       4.28       7.08
H       1.05       6.01       9.07
C       1.57       5.23       9.62
O       3.80       2.78      12.90
