132

Tb      -0.58       1.91       8.91
Tb       8.85       3.46       0.14
Tb       6.92       8.87       8.62
Tb      -2.52       7.39      17.42
H       8.04       3.16      14.41
H      -1.51       7.01      12.54
H       7.87       2.18      12.10
H      -1.65       5.86      10.31
H       0.74      10.19       6.83
H       3.66       3.15       8.72
H       6.97       0.23       6.54
H       6.07       3.80       8.45
H       0.25       2.22       5.63
H       5.92       9.19       3.74
H       0.43       3.21       3.32
H       6.06      10.35       1.52
H       3.67       6.00      15.62
H       4.63       2.24      17.51
H       1.29       5.14      15.34
H       2.23       1.57      17.23
H      -1.67       7.66       3.16
H       7.85       3.80       5.00
H      -1.48       8.62       5.49
H       8.00       4.93       7.24
H       5.62       0.58      10.72
H       2.69       7.62       8.83
H      -0.61      10.56      11.01
H       0.28       6.98       9.12
H       6.11       8.54      11.93
H       0.44       1.61      13.75
H       5.91       7.59      14.26
H       0.27       0.48      15.99
H       2.65       4.82       1.94
H       1.72       8.59       0.05
H       5.04       5.66       2.22
H       4.13       9.24       0.33
C      -1.76       5.82      15.01
C      -1.80       5.18      13.66
C       8.17       3.80      13.54
C      -1.67       5.94      12.49
C       8.07       3.23      12.28
C      -1.74       5.33      11.26
C       2.54       0.73       8.10
C       3.93       1.21       7.79
C       4.87       0.38       7.16
C       4.35       2.47       8.23
C       6.18       0.81       7.00
C       5.67       2.86       8.08
C       6.18      10.37       6.21
C      10.06       0.21       4.87
C       0.11       1.59       4.75
C       6.08      10.26       3.70
C       0.22       2.16       3.50
C      10.00       0.07       2.47
C       5.73       4.67      16.89
C       4.34       4.19      16.59
C       3.39       5.00      15.96
C       3.93       2.92      17.02
C       2.09       4.57      15.80
C       2.62       2.52      16.87
C       8.10       5.01       2.55
C       8.15       5.65       3.89
C      -1.81       7.02       4.03
C       8.01       4.87       5.05
C      -1.69       7.58       5.29
C       8.10       5.47       6.30
C       3.81      10.05       9.43
C       2.42       9.57       9.75
C       1.49      10.40      10.39
C       2.00       8.30       9.32
C       0.18       9.98      10.55
C       0.68       7.92       9.48
C       0.18       0.41      11.31
C      -3.71      10.56      12.65
C       6.24       9.19      12.79
C       0.27       0.53      13.81
C       6.12       8.64      14.05
C      -3.66      10.74      15.06
C       0.61       6.17       0.67
C       2.00       6.65       0.98
C       2.94       5.82       1.61
C       2.42       7.91       0.54
C       4.25       6.24       1.76
C       3.74       8.30       0.69
N       8.23       3.99      11.16
N       6.57       2.02       7.49
N       0.77       4.37       8.19
N       0.05       1.41       2.38
N       1.70       3.34      16.28
N       7.50       0.99      16.93
N      -1.86       6.81       6.41
N      -0.22       8.76      10.07
N       5.58       6.40       9.34
N       6.29       9.41      15.17
N       4.64       7.47       1.29
N      -1.14       9.83       0.62
O       8.12       3.44       9.97
O      -1.59       5.08      16.04
O      -1.93       7.08      15.10
O       1.75       1.59       8.59
O      -1.54      10.30       7.90
O       7.83       2.40       7.38
O       0.67       4.02       9.42
O       0.16       3.62       7.33
O       1.40       5.37       7.84
O       0.16       1.97       1.19
O       9.89       0.30       7.25
O       6.31       9.11       6.30
O       6.52       3.81      17.38
O       5.97       5.91      16.69
O       0.45       2.95      16.16
O       7.61       1.34       0.61
O       8.10       1.78      16.09
O       6.88      -0.01      16.55
O      -1.76       7.35       7.60
O       7.92       5.75       1.52
O       8.27       3.75       2.46
O       4.60       9.20       8.91
O       7.89       0.48       9.65
O      -1.48       8.38      10.19
O       5.69       6.72       8.11
O       6.18       7.19      10.19
O       4.96       5.41       9.72
O       6.17       8.87      16.37
O      -3.54      10.48      10.26
O       0.05       1.67      11.24
O      -0.19       7.03       0.19
O       0.37       4.93       0.87
O       5.89       7.85       1.40
O      -1.27       9.50      16.95
O      -1.77       9.07       1.47
O      -0.47      10.80       1.00
