36

Al       5.89       0.00       6.43
Al      -0.00       0.00       4.02
Al       2.94       1.20       5.23
Al       8.83      -1.20       5.23
C       3.57       0.45       8.03
C       9.45      -0.45       2.42
C       0.62       2.81       4.78
C       6.51      -2.81       5.68
C      11.15      -2.81       4.78
C       5.26       2.81       5.68
C       2.32       0.45       2.42
C       8.21      -0.45       8.03
H       4.42      -0.68       4.55
H      10.30       0.68       5.91
H       1.47      -0.68       5.91
H       7.36       0.68       4.55
O       4.71      -0.05       7.90
O       3.05       1.11       7.10
O      -1.18       0.05       2.56
O       8.94      -1.11       3.36
O       1.77       2.67       5.28
O       0.11       1.87       4.12
O       7.65      -2.67       5.17
O       5.99      -1.87       6.33
O      10.01      -2.67       5.28
O      -0.11      -1.87       4.12
O       4.12       2.67       5.17
O       5.78       1.87       6.33
O       1.18      -0.05       2.56
O       2.84       1.11       3.36
O       7.06       0.05       7.90
O       8.72      -1.11       7.10
O       4.42      -0.03       5.20
O      10.30       0.03       5.25
O       1.47      -0.03       5.25
O       7.36       0.03       5.20
