61

N      16.75      -1.09      23.12
C      25.22      -5.16      16.51
H      26.59      -1.28      20.31
C      24.78       2.80      16.68
C      20.02      -0.45      21.99
C      24.35      -1.56      18.63
H      24.47      -2.78      20.23
C      22.38      -0.11      21.97
N      22.36       5.22      15.23
C      24.88       1.78      17.58
H      21.20      -0.14      23.61
N      29.82       2.12      24.91
C      21.24      -0.42      19.93
Si      24.02      -0.00      19.61
C      23.61       3.56      16.61
N      22.76       6.17      14.38
C      22.68       2.20      18.34
C      24.83      -3.92      18.62
C      26.54      -0.52      20.88
C      23.84       1.45      18.43
H      19.24      -0.68      20.12
H      28.29      -0.89      21.83
C      27.51       0.81      22.61
C      22.43      -0.20      20.59
C      20.05      -0.54      20.60
N      17.26      -0.50      24.19
N      18.53      -0.17      23.97
C      24.46      -1.57      17.25
N      25.68      -5.23      15.25
H      23.19       0.04      22.45
N      24.08       6.18      14.31
H      25.69       1.28      17.63
C      23.52       4.66      15.65
H      24.33      -0.77      16.76
N      17.68      -1.16      22.16
N      25.04      -6.36      17.06
C      27.56      -0.29      21.78
C      28.58       1.08      23.57
C      22.56       3.24      17.44
H      25.51       3.00      16.11
N      28.75       2.29      24.12
H      24.82      -2.71      15.61
N      25.80      -6.54      15.02
H      26.34       2.41      23.11
N      24.59       5.23      15.10
C      24.54      -2.76      19.29
H      21.24      -0.50      18.98
H      24.96      -4.73      19.10
C      24.92      -3.92      17.22
H      21.76       3.74      17.39
C      21.20      -0.22      22.67
C      26.40       1.66      22.54
N      30.25       0.87      24.84
N      29.49       0.18      23.99
H      24.66       2.00      21.59
N      25.41      -7.21      16.10
C      25.40       1.41      21.63
C      24.74      -2.73      16.55
C      18.75      -0.59      22.71
C      25.44       0.31      20.78
H      21.95       2.00      18.91
