61

H      20.94       1.90      11.93
H      23.45      -2.67       9.47
H      21.45      -1.59       9.06
C      22.65      -3.02       9.83
C      15.14      -3.91      10.64
N      25.94      -5.47      10.62
C      22.67      -4.18      10.60
H      17.87       0.23       5.46
Si      18.68      -1.89       9.80
C      17.91       2.05      10.77
H      17.73      -3.81       5.46
C      15.19      -4.08      12.00
C      18.15      -2.99       7.25
C      18.86      -0.15      10.47
H      14.40      -4.25      10.15
H      16.35      -3.71      13.64
C      21.46      -2.38       9.60
C      20.31      -3.99      10.89
N      13.94      -4.65      14.04
N      20.33       4.52      12.13
C      16.16      -3.25       9.99
C      17.29      -2.94      12.03
C      20.26      -2.84      10.12
H      21.50      -5.43      11.68
C      14.12      -4.77      12.72
C      19.08       2.49      11.39
H      18.22      -3.82       7.71
N      17.29      -2.45       1.80
H      20.75      -0.28      11.19
C      19.18       3.87      11.86
C      18.34      -1.82       7.96
H      17.01       0.47       9.92
N      12.88      -5.42      14.29
H      18.03      -2.60      12.53
N      17.66      -2.86       3.02
C      23.94      -4.86      10.85
N      25.44      -6.11      11.66
C      17.95      -0.61       5.91
C      18.24      -0.63       7.26
H      17.18       2.65      10.65
N      19.93       5.72      12.53
N      17.01      -0.72       3.10
H      18.36       0.19       7.72
C      20.13       1.62      11.53
N      18.61       5.79      12.50
N      16.90      -1.18       1.85
N      25.02      -4.67      10.08
C      17.26      -2.75      10.67
H      16.10      -3.13       9.05
C      16.29      -3.59      12.70
N      24.16      -5.75      11.84
C      17.48      -1.78       3.79
N      13.21      -5.59      12.15
C      17.78      -1.78       5.22
C      17.87      -2.99       5.91
N      12.45      -5.98      13.17
N      18.10       4.63      12.08
C      20.01       0.32      11.08
H      19.51      -4.33      11.26
C      21.50      -4.65      11.14
C      17.82       0.76      10.33
