61

C       5.49      -4.65      15.01
N       2.09       4.63      14.06
C       1.25      -2.75      15.48
C       3.17       3.87      14.28
C       0.28      -3.59      13.44
C       1.47      -1.78      22.36
N       9.93      -5.47      15.53
C       1.81       0.76      15.81
C       1.90       2.05      15.38
C       4.30      -3.99      15.25
C       3.07       2.49      14.75
C       1.77      -1.78      20.93
C       2.85      -0.15      15.68
Si       2.67      -1.89      16.34
C       2.33      -1.82      18.18
C      -0.83      -4.08      14.14
N      -2.07      -4.65      12.11
C      -0.87      -3.91      15.50
H       1.86       0.23      20.69
H       4.93       1.90      14.21
C       4.25      -2.84      16.02
N       3.92       5.72      13.61
N       9.01      -4.67      16.07
C       7.93      -4.86      15.30
H       4.73      -0.28      14.95
H       1.72      -3.81      20.69
N       1.65      -2.86      23.12
H       3.50      -4.33      14.88
C       4.12       1.62      14.62
H       5.44      -1.59      17.08
H       2.35       0.19      18.43
C       1.28      -2.94      14.11
H       0.34      -3.71      12.50
N       0.89      -1.18      24.29
C       5.45      -2.38      16.55
N       4.32       4.52      14.01
C       6.63      -3.02      16.31
N      -3.13      -5.42      11.85
C       4.00       0.32      15.07
N       9.43      -6.11      14.48
C       2.14      -2.99      18.89
H       7.44      -2.67      16.68
N       1.00      -0.72      23.05
C       0.14      -3.25      16.16
C       2.23      -0.63      18.89
H      -1.61      -4.25      16.00
H       2.02      -2.60      13.62
N       1.28      -2.45      24.34
C      -1.89      -4.77      13.42
H       2.21      -3.82      18.44
C       1.86      -2.99      20.23
C       6.66      -4.18      15.54
H       5.49      -5.43      14.46
H       0.09      -3.13      17.10
H       1.17       2.65      15.50
N      -2.80      -5.59      13.99
N      -3.56      -5.98      12.97
N       8.15      -5.75      14.31
C       1.94      -0.61      20.23
N       2.60       5.79      13.64
H       1.00       0.47      16.22
