61

C       6.67      14.78      11.08
N       6.35      10.58      12.13
C       6.37      19.08      10.89
C       6.42      17.93      10.12
N      12.74      19.74      14.04
C      10.39      18.69      12.70
N       2.52      20.84      11.84
C      12.57      19.87      12.72
C       6.55      13.48      11.53
C       5.19      19.74      11.14
C       2.74      19.96      10.85
N       1.67      19.77      10.08
H       7.18      19.42      11.26
C       7.83      15.24      10.47
H       5.19      20.52      11.68
C       9.43      17.84      10.67
Si       8.01      16.98       9.80
H       9.67      14.63       9.92
C       8.45      15.72       7.26
C       7.60      12.60      11.39
N       8.58      10.46      12.08
C      11.50      19.17      12.00
C       8.87      14.34      10.33
H       5.23      16.69       9.06
N       9.67      15.82       3.10
N      13.48      20.68      12.15
N      13.81      20.51      14.29
H       5.74      13.19      11.93
C       8.34      16.91       7.96
N      14.24      21.07      13.17
C       5.23      17.47       9.60
C       9.39      18.03      12.03
N       8.07       9.30      12.50
C       8.82      18.08       5.91
H       8.32      14.90       7.72
N       9.03      17.96       3.02
N       9.79      16.28       1.85
H       8.65      17.70      12.53
H       8.46      18.91       7.71
H       3.23      17.76       9.47
H       9.50      12.45      10.65
N       9.40      17.55       1.80
C       4.01      19.27      10.60
H      10.33      18.81      13.64
H       8.95      18.91       5.46
H       5.94      15.37      11.19
H       8.81      14.87       5.46
N       6.75       9.37      12.53
C       8.53      18.08       7.25
C       4.04      18.11       9.83
C      11.55      19.01      10.64
C       8.73      15.70       5.91
N       1.25      21.20      11.66
N       0.74      20.57      10.62
C       9.21      16.88       3.79
C      10.53      18.34       9.99
C       7.51      11.22      11.86
C       8.91      16.87       5.22
C       8.77      13.05      10.77
H      10.58      18.23       9.05
H      12.28      19.35      10.15
