61

C       3.17       8.34       9.28
C       1.86       6.61       0.37
C       2.85       9.14       5.11
N      -3.56      14.40       1.41
C       5.45       9.50       2.74
C       1.28      11.89       3.47
H       5.49      12.83       1.14
H       5.44       8.64       3.15
C       6.63      10.02       2.30
Si       2.67       9.43       3.27
C       1.25      10.61       2.95
C       7.93      11.82       1.21
C       1.77       5.41       1.07
N      -2.07      14.48       3.00
N      -2.80      13.32       1.23
C       1.94       5.42       2.43
C       1.47       4.17       0.35
C       4.30      11.43       1.99
H       1.17       7.90       7.62
N       8.15      13.13       0.94
N       9.93      11.93       0.57
N       0.89       2.19      -0.10
N       4.32       8.25       9.98
C       5.49      11.97       1.55
C       4.25      10.18       2.60
C      -1.89      13.40       2.23
H       3.50      11.92       1.88
H       2.35       6.59       4.03
C       2.14       7.77       1.04
C       2.23       6.60       3.09
H       0.34      13.67       3.61
N       2.09       8.15      10.05
N       9.01      11.06       0.99
N       1.28       2.79      -1.22
H       1.72       6.63      -0.57
H       4.73       9.83       5.35
H       1.00       8.36       5.36
C       0.28      12.80       3.24
C       0.14      10.27       2.18
C       1.90       8.30       7.16
N      -3.13      15.09       2.46
N       9.43      13.15       0.54
H       0.09       9.40       1.81
C       6.66      11.27       1.68
H       1.86       4.61       2.93
N       1.65       4.05      -0.97
H       7.44       9.53       2.42
C       4.00       9.44       5.81
N       1.00       3.04       0.92
C       2.33       7.81       2.41
H       2.21       8.58       0.55
C       3.07       8.62       7.85
C       1.81       8.57       5.82
H       2.02      12.15       4.01
N       2.60       7.93      11.27
H      -1.61      10.91       1.39
C      -0.87      11.17       1.93
H       4.93       9.38       7.61
N       3.92       7.99      11.22
C       4.12       9.17       7.16
C      -0.83      12.44       2.47
