61

C       8.53       7.32      25.11
C       4.04       5.07      23.84
C       2.74       3.27      24.93
C       8.82       8.48      25.77
H       5.19       2.27      25.00
C       4.01       3.82      24.46
H      10.58       5.69      24.34
H       8.81      10.48      23.22
N       9.79      12.90      26.25
N       6.75       7.10      14.92
C       7.60       6.48      18.29
N       1.25       1.94      25.60
C       6.42       4.91      23.54
H       8.32       8.51      22.12
C      12.57       1.69      23.92
H      10.33       1.42      22.54
Si       8.01       5.66      22.88
N      12.74       0.61      23.15
C       5.19       3.13      24.60
N       8.58       6.95      16.09
H       8.65       2.95      22.13
H       8.95       8.46      26.72
C       9.21      10.92      25.79
C       7.51       6.76      16.86
C       7.83       5.96      21.04
C       8.34       7.29      23.74
C       8.73       9.67      23.71
H       8.46       6.51      25.60
H       5.94       5.27      20.79
C      10.39       2.30      22.90
N      13.48       1.78      24.91
N       9.03      11.05      27.11
C       8.91       9.69      25.08
N       0.74       3.17      25.58
H       7.18       3.18      24.26
C       6.67       5.66      20.33
N       9.67      12.05      25.22
H       5.23       6.45      22.99
H       5.74       5.71      18.53
H      12.28       4.18      24.75
C       9.39       3.20      22.67
H       9.50       7.20      18.53
C       5.23       5.59      23.40
N      13.81       0.01      23.69
C       8.77       6.79      18.99
C       6.55       5.92      18.98
C       8.87       6.52      20.32
C      11.50       2.66      23.68
N      14.24       0.70      24.74
H       9.67       6.74      20.78
C       9.43       4.48      23.19
C      10.53       4.82      23.97
C       8.45       8.49      23.06
N       1.67       4.03      25.15
N       6.35       6.85      16.17
C       6.37       3.67      24.15
N       9.40      12.31      27.37
N       8.07       7.16      14.88
C      11.55       3.92      24.21
H       3.23       5.56      23.72
N       2.52       1.97      25.20
