9

O      -4.26       0.91       9.11
Ga      -5.90       0.43       9.88
O      -6.29       1.81      11.07
O      -7.20       0.78       8.55
P      -7.20      -1.86      11.18
P      -3.59       0.26       7.83
P      -8.05      -0.26       7.76
O      -5.95      -1.40      10.29
P      -5.79       1.74      12.58
