9

O       8.88       6.11       2.64
Fe      10.61       6.35       1.88
P       8.20       6.59       3.97
O      10.62       8.25       1.53
P      10.48       5.01      -0.75
P      12.67       6.78       4.22
O      11.01       4.88       0.74
P      11.89       8.62       0.65
O      11.77       5.87       3.31
