10

O       3.58      -0.82       7.44
O       1.76       0.25       8.03
H       4.85       1.26       7.95
H       2.31       2.86       7.95
O       3.59       4.94       7.44
O       5.41       3.87       8.03
C       2.99       0.23       7.79
C       3.84       1.45       7.88
C       4.17       3.89       7.79
C       3.33       2.67       7.88
