462

H      14.64      15.11      18.77
H      15.99      16.04      17.03
H      17.50      17.25      15.54
H      19.04      18.69      14.42
H      20.55      20.02      18.13
H      16.97      17.11      21.68
H      16.68      20.47      19.15
H      18.09      23.12      22.12
H      19.77      21.53      22.77
H      20.48      16.10      19.92
H      21.31      19.67      23.13
H      22.67      17.70      23.16
H       6.38      34.73      22.95
H       7.72      32.75      22.99
H       9.23      30.88      22.68
H      10.79      29.20      22.00
H      12.34      31.79      19.04
H       8.73      36.30      19.80
H       8.57      32.35      18.06
H       9.85      33.92      14.35
H      11.44      35.32      15.47
H      12.25      35.21      21.59
H      12.96      36.53      16.95
H      14.32      37.47      18.67
H      23.11      28.79       4.00
H      24.49      29.80       5.67
H       0.93      30.47       7.43
H       2.49      30.70       9.24
H       3.83      26.74       8.60
H       0.21      25.20       4.31
H      25.06      25.69       8.44
H       1.28      21.76       9.22
H       2.98      21.99       7.54
H       3.77      27.20       4.32
H       4.55      22.61       5.76
H       5.93      23.56       4.06
H       2.09      11.11      26.86
H       3.43      10.18      28.60
H       4.94       8.97      30.09
H       6.48       7.55      31.22
H       7.98       6.18      27.51
H       4.40       9.08      23.95
H       4.08       5.76      26.47
H       5.46       3.10      23.49
H       7.18       4.66      22.87
H       7.91      10.09      25.71
H       8.74       6.50      22.51
H      10.11       8.47      22.48
H      18.69      -8.42      22.51
H      20.04      -6.45      22.45
H      21.56      -4.56      22.75
H      23.12      -2.88      23.43
H      24.62      -5.44      26.44
H      21.02      -9.95      25.69
H      20.74      -6.10      27.34
H      22.14      -7.38      31.12
H      23.83      -8.72      30.06
H      24.53      -8.93      23.93
H       0.24      -9.95      28.62
H       1.60     -10.96      26.92
H      10.48      -2.37      41.72
H      11.82      -3.42      40.04
H      13.32      -4.10      38.25
H      14.85      -4.36      36.43
H      16.36      -0.47      37.11
H      12.80       1.15      41.42
H      12.49       0.63      37.27
H      13.87       4.54      36.45
H      15.57       4.30      38.13
H      16.31      -0.87      41.42
H      17.13       3.69      39.91
H      18.50       2.75      41.63
H      23.14      23.86      16.97
H      24.52      25.27      15.51
H      23.28      21.20      10.48
H      21.94      19.85      11.87
H       0.57      23.26      11.55
H      21.45      19.12      14.08
H      14.87      28.69      16.27
H      16.20      26.68      15.83
H      15.02      24.59      21.97
H      13.72      26.51      22.39
H      17.39      24.35      19.61
H      13.24      28.77      21.85
H       4.76      26.13      13.52
H       5.81      26.79      15.65
H       7.09      32.74      13.11
H       6.10      32.11      11.08
H       7.20      30.86      16.20
H       5.01      30.58       9.70
H      10.64       2.39      28.71
H      12.02       1.00      30.19
H      10.70       5.09      35.19
H       9.36       6.41      33.78
H      13.14       3.02      34.14
H       8.89       7.13      31.55
H       2.18      -2.58      29.13
H       3.59      -0.62      29.61
H       2.25       1.78      23.62
H       0.88      -0.09      23.16
H       4.71       1.84      25.92
H       0.39      -2.38      23.62
H      19.04       0.41      33.25
H      20.39      -0.17      31.28
H      18.98      -6.54      32.24
H      17.66      -5.99      34.12
H      21.44      -4.61      30.98
H      17.26      -4.43      35.89
H       1.20      17.76      22.46
H       3.02      16.65      23.69
H      25.00      10.89      23.06
H      23.24      11.96      21.87
H       2.33      12.64      24.96
H      22.40      14.05      20.63
H      18.00      36.73      18.84
H      19.82      38.35      19.18
H      16.51     -11.65      24.62
H      14.75     -13.22      24.29
H      18.91     -10.82      22.11
H      14.20      36.86      23.08
H       9.61      24.16       4.48
H      11.43      23.66       2.90
H       8.29       1.02      43.45
H       6.52       1.50      44.98
H      10.75      -1.50      44.00
H       5.69      27.61       2.21
H      13.75       8.42      23.10
H      15.56       9.54      21.88
H      12.44      15.31      22.58
H      10.69      14.23      23.77
H      14.88      13.56      20.65
H       9.85      12.13      25.00
H       5.25     -10.36      26.63
H       7.06     -11.98      26.26
H       4.19      37.96      20.93
H       2.44      39.54      21.28
H       6.63      37.13      23.38
H       1.33     -10.55      22.49
H      22.14       2.21      41.26
H      23.95       2.73      42.84
H      20.84      25.37       2.30
H      19.08      24.86       0.78
H      23.29      27.90       1.74
H      18.24      -1.26      43.56
C      19.84      18.02      20.58
C      20.10      19.03      21.51
C      19.20      20.08      21.33
C      18.32      19.75      20.29
C      17.33      20.69      19.91
C      17.25      21.95      20.55
C      18.15      22.23      21.62
C      19.12      21.31      22.01
C      21.13      18.92      22.46
C      21.92      17.77      22.47
C      21.70      16.72      21.55
C      20.65      16.85      20.59
C      17.56      17.45      19.67
C      17.27      17.11      18.34
C      18.15      17.78      17.49
C      19.02      18.56      18.25
C      18.17      17.80      16.09
C      19.08      18.64      15.44
C      19.99      19.45      16.16
C      19.94      19.41      17.59
C      16.76      16.88      20.71
C      15.71      15.97      20.40
C      15.43      15.71      19.03
C      16.21      16.26      18.00
C      18.69      18.43      19.71
C      11.59      34.92      19.59
C      11.80      35.32      18.26
C      10.92      34.66      17.42
C      10.10      33.82      18.19
C       9.16      32.98      17.52
C       9.07      33.01      16.10
C       9.90      33.89      15.37
C      10.83      34.71      16.02
C      12.80      36.25      17.92
C      13.60      36.80      18.94
C      13.41      36.44      20.29
C      12.40      35.49      20.62
C       9.31      34.38      20.49
C       9.02      33.38      21.43
C       9.90      32.32      21.27
C      10.79      32.60      20.23
C       9.91      31.09      21.94
C      10.83      30.11      21.54
C      11.76      30.35      20.50
C      11.72      31.61      19.83
C       8.52      35.56      20.48
C       7.46      35.73      21.41
C       7.16      34.67      22.30
C       7.94      33.50      22.33
C      10.46      33.94      19.63
C       3.11      25.66       5.63
C       3.35      24.34       6.03
C       2.45      23.98       7.02
C       1.58      25.05       7.27
C       0.58      24.92       8.26
C       0.47      23.72       9.01
C       1.36      22.65       8.72
C       2.35      22.77       7.73
C       4.38      23.57       5.46
C       5.18      24.14       4.46
C       4.97      25.46       4.02
C       3.93      26.23       4.61
C       0.85      26.77       5.59
C       0.61      28.10       5.95
C       1.49      28.48       6.95
C       2.33      27.41       7.26
C       1.56      29.70       7.65
C       2.48      29.82       8.70
C       3.35      28.76       9.05
C       3.25      27.54       8.33
C      25.16      26.17       4.58
C      24.13      26.92       3.95
C      23.88      28.24       4.40
C      24.68      28.84       5.38
C       1.97      26.22       6.42
C       7.27       8.17      25.06
C       7.53       7.15      24.13
C       6.63       6.12      24.31
C       5.74       6.45      25.35
C       4.73       5.52      25.72
C       4.64       4.27      25.06
C       5.54       3.98      24.01
C       6.53       4.89      23.63
C       8.56       7.25      23.19
C       9.36       8.41      23.17
C       9.13       9.46      24.08
C       8.09       9.34      25.04
C       4.99       8.76      25.96
C       4.71       9.10      27.29
C       5.58       8.43      28.14
C       6.45       7.64      27.38
C       5.60       8.42      29.55
C       6.51       7.58      30.20
C       7.43       6.77      29.48
C       7.37       6.79      28.06
C       4.20       9.33      24.93
C       3.15      10.24      25.23
C       2.87      10.50      26.60
C       3.65       9.96      27.63
C       6.12       7.77      25.93
C      23.90      -8.55      25.92
C      24.15      -8.86      27.26
C      23.26      -8.18      28.08
C      22.38      -7.44      27.28
C      21.39      -6.64      27.91
C      21.31      -6.59      29.33
C      22.20      -7.37      30.10
C      23.18      -8.16      29.48
C       0.06      -9.74      27.64
C       0.85     -10.32      26.63
C       0.62     -10.05      25.27
C      24.70      -9.15      24.91
C      21.61      -8.04      24.98
C      21.33      -7.06      24.02
C      22.20      -5.99      24.18
C      23.08      -6.27      25.23
C      22.22      -4.76      23.50
C      23.15      -3.78      23.90
C      24.07      -4.02      24.95
C      24.01      -5.27      25.63
C      20.82      -9.23      25.00
C      19.76      -9.41      24.06
C      19.48      -8.35      23.16
C      20.26      -7.19      23.12
C      22.75      -7.59      25.84
C      15.67       0.65      40.08
C      15.92       1.97      39.66
C      15.02       2.33      38.67
C      14.14       1.26      38.44
C      13.13       1.40      37.45
C      13.04       2.59      36.69
C      13.94       3.65      36.96
C      14.93       3.53      37.95
C      16.95       2.74      40.22
C      17.75       2.17      41.23
C      17.52       0.86      41.69
C      16.48       0.09      41.10
C      13.39      -0.43      40.14
C      13.10      -1.75      39.77
C      13.97      -2.15      38.76
C      14.85      -1.10      38.46
C      13.99      -3.35      38.05
C      14.89      -3.50      36.98
C      15.81      -2.47      36.64
C      15.76      -1.25      37.38
C      12.60       0.19      41.15
C      11.55      -0.53      41.78
C      11.26      -1.85      41.33
C      12.04      -2.46      40.34
C      14.51       0.10      39.30
C      23.78      22.66      11.93
C      23.59      22.99      13.30
C      22.79      22.16      14.15
C      22.18      20.98      13.66
C      22.35      20.70      12.28
C      23.13      21.51      11.44
C      23.26      23.63      15.99
C      24.05      24.44      15.15
C      24.78      23.25      11.16
C      21.48      20.05      14.43
C      15.50      25.04      19.95
C      15.31      26.03      18.95
C      14.54      27.21      19.21
C      13.95      27.42      20.48
C      14.12      26.40      21.45
C      14.87      25.25      21.20
C      14.99      27.98      16.99
C      15.75      26.82      16.73
C      16.47      24.05      19.84
C      13.27      28.58      20.87
C       6.80      30.90      14.14
C       6.25      29.61      13.96
C       5.64      29.22      12.72
C       5.57      30.12      11.62
C       6.13      31.41      11.82
C       6.72      31.79      13.04
C       5.16      27.06      13.65
C       5.76      27.44      14.86
C       7.41      31.32      15.34
C       4.93      29.87      10.40
C      11.23       3.62      33.75
C      11.05       3.28      32.38
C      10.25       4.09      31.51
C       9.62       5.27      32.00
C       9.78       5.57      33.38
C      10.56       4.77      34.23
C      10.75       2.62      29.69
C      11.54       1.83      30.54
C      12.22       3.04      34.53
C       8.92       6.19      31.21
C       2.78       1.22      25.60
C       2.60       0.19      26.56
C       1.79      -0.95      26.28
C       1.15      -1.09      25.02
C       1.31      -0.03      24.09
C       2.11       1.09      24.37
C       2.30      -1.83      28.45
C       3.10      -0.71      28.72
C       3.79       2.18      25.72
C       0.43      -2.22      24.60
C      19.53      -4.56      31.71
C      19.38      -3.21      32.13
C      18.59      -2.87      33.27
C      17.96      -3.88      34.04
C      18.09      -5.22      33.59
C      18.86      -5.55      32.46
C      19.13      -0.56      32.94
C      19.90      -0.89      31.82
C      20.52      -4.95      30.81
C      17.28      -3.67      35.25
C       1.08      12.61      23.35
C       1.11      14.01      23.09
C      25.17      14.66      22.39
C      24.04      13.93      21.93
C      24.04      12.53      22.16
C      25.09      11.89      22.86
C       1.18      16.76      22.63
C       2.22      16.12      23.33
C       2.00      12.04      24.24
C      22.93      14.54      21.32
C      17.67     -12.22      22.93
C      17.97      39.08      21.83
C      16.91      38.15      21.63
C      15.80      38.09      22.52
C      15.53     -13.23      23.63
C      16.58     -12.30      23.83
C      18.00      37.36      19.64
C      19.04      38.29      19.83
C      18.59     -11.15      22.99
C      14.69      37.25      22.31
C       9.49      -0.10      44.79
C       9.52      25.51       0.92
C       8.46      25.79       1.84
C       7.32      26.55       1.44
C       7.33      27.07       0.11
C       8.38       0.69      44.41
C       9.59      24.52       3.53
C      10.63      24.24       2.63
C      10.41      -0.58      43.85
C       6.21      26.77       2.27
C      13.64      13.58      22.27
C      13.66      12.18      22.51
C      12.60      11.53      23.22
C      11.48      12.26      23.69
C      11.48      13.66      23.47
C      12.53      14.30      22.77
C      13.73       9.43      22.94
C      14.77      10.06      22.24
C      14.55      14.16      21.38
C      10.37      11.65      24.30
C       5.40      38.54      22.57
C       5.14     -12.74      23.66
C       4.09     -11.81      23.88
C       2.96     -11.76      23.02
C       2.95     -12.64      21.92
C       4.29      38.62      21.70
C       5.23     -11.00      25.83
C       6.26     -11.93      25.63
C       6.31      37.48      22.51
C       1.85     -10.92      23.25
C      22.03      26.49       0.96
C      22.05       0.87      44.82
C      20.99       0.58      43.91
C      19.87      -0.19      44.31
C      19.87      25.41       0.44
C      20.92      25.70       1.34
C      22.12       1.86      42.22
C      23.16       2.15      43.12
C      22.95      26.97       1.90
C      18.76      -0.42      43.48
N      20.79      20.30      15.50
N      22.55      15.71      21.68
N      16.30      22.86      20.31
N      14.94      15.40      21.35
N      12.57      29.35      20.10
N      14.27      37.02      21.12
N       8.26      32.27      15.34
N       6.69      36.84      21.45
N       4.12      28.89      10.14
N       5.83      25.86       3.09
N      24.63      23.48       9.90
N      23.34      26.39       2.99
N       8.23       5.93      30.15
N       9.99      10.48      23.94
N       3.66       3.39      25.29
N       2.38      10.80      24.28
N      24.88      -3.02      25.36
N       1.47     -10.66      24.45
N      20.35      -5.93      29.99
N      18.98     -10.51      24.04
N      16.59      -2.62      35.56
N      18.38       0.47      42.64
N      12.07       2.83      35.80
N      10.78       0.01      42.75
N      22.67      22.53      15.46
N      24.19      24.08      13.85
N      14.42      28.12      18.21
N      15.89      25.90      17.72
N       5.12      27.96      12.63
N       6.28      28.69      14.97
N      10.15       3.72      30.21
N      11.66       2.19      31.84
N       1.68      -1.91      27.24
N       3.23       0.25      27.77
N      18.51      -1.56      33.63
N      20.00      -2.20      31.46
N      25.27      16.00      22.19
N       2.14      14.79      23.53
N      16.99      37.33      20.54
N      18.98      39.10      20.91
N       8.56      25.28       3.10
N      10.55      24.74       1.37
N      12.70      10.18      23.39
N      14.69      11.40      22.06
N       4.20     -10.98      24.96
N       6.17     -12.76      24.56
N      21.09       1.09      42.65
N      23.08       1.65      44.37
