18

C      12.99       6.18      15.86
C      11.63       7.04      19.75
O      12.39       7.89      21.79
H      10.51       5.18      19.62
O      11.16       6.07      21.90
C      11.51       7.14      21.22
H      10.94       4.86      17.21
H      13.08       8.53      17.06
H      12.63       9.69      20.49
C      12.70       9.39      19.47
C      11.09       5.92      19.08
O      13.15      10.23      18.69
O      12.97       5.00      15.36
C      12.23       6.57      17.05
O      13.85       7.03      15.48
C      12.53       7.80      17.63
C      11.36       5.71      17.72
C      12.26       8.06      18.97
