18

O       3.14       2.43      12.45
C       4.38       1.11       6.51
C       3.03       2.54       9.61
O       5.43       0.56       6.03
C       4.21       2.83      11.88
C       3.17       2.29       8.26
C       4.40       1.96       7.70
H       2.27       2.20       7.66
C       5.56       2.26       8.40
H       6.52       2.18       7.91
C       5.47       2.60       9.75
H       6.39       2.77      10.30
C       4.22       2.63      10.41
O       3.23       0.76       6.13
N       1.66       2.66      10.09
O       5.33       2.63      12.55
O       0.75       3.05       9.25
O       1.24       1.95      11.09
