18

C       4.25       2.67      17.48
C       4.34       1.06      21.37
H       6.41       2.75      17.61
O       5.33       2.61      15.32
C       4.22       2.82      16.01
H       6.50       2.23      20.02
H       2.24       2.11      20.17
C       3.15       2.24      19.59
H       1.44       3.06      16.73
C       5.49       2.60      18.15
C       1.67       2.86      17.76
O       3.14       2.41      15.44
C       5.55       2.27      19.51
C       4.38       1.91      20.17
O       5.39       0.51      21.87
O       0.73       2.87      18.53
O       3.19       0.72      21.75
C       3.05       2.61      18.26
