20

C       6.63       5.96      12.04
C       7.65       6.56       6.57
C       7.72       5.31       9.99
C       7.70       5.29       8.63
C       7.14       6.36       7.92
C       7.05       6.31      10.70
C       6.46       7.39       8.60
C       6.48       7.40      10.01
H       8.20       4.47      10.48
H       8.21       4.47       8.13
N       5.76       8.41       7.87
N       5.92       8.50      10.74
O       5.68       6.63      12.58
O       7.52       7.72       6.03
O       6.99       4.80      12.46
O       8.49       5.69       6.16
O       5.05       8.08       6.84
O       5.95       9.67       8.14
O       6.55       8.97      11.78
O       4.73       8.94      10.47
