13

C       4.17       9.81       2.03
C       3.63       9.34       3.37
C       1.64       8.21       4.22
C       0.34       7.67       3.65
H       3.60      10.20       4.07
H       4.30       8.56       3.78
H       2.22       7.40       4.68
O       3.54       9.41       0.99
O       5.19      10.56       2.00
O       2.33       8.81       3.12
H       1.41       8.96       4.99
O      -0.42       7.02       4.45
O       0.05       7.93       2.45
