13

H       3.25       5.41       3.74
H       3.07       3.64       4.05
O       3.83       5.05       6.18
O       1.30       4.66       3.57
O       1.85       3.75       6.36
H       1.89       2.97       2.47
H       0.76       4.08       1.65
O      -0.50       1.83       2.32
O      -0.73       3.05       4.19
C       2.48       4.89       5.69
C       2.62       4.63       4.21
C       1.02       3.63       2.62
C      -0.16       2.78       3.09
