20

F       8.84       0.35      15.01
H       5.93       1.47      13.23
H       9.02       1.59      13.03
H       5.90       4.35      14.20
H       4.66       3.06      14.06
H       4.52       4.26      15.36
H       5.39       2.13      16.30
H       6.54       3.50      16.43
C       7.65       1.08      11.39
C       7.98       1.47      12.73
C       8.08       1.27      15.68
C       7.12       1.94      15.01
C       6.95       1.63      13.59
C       8.54       1.55      17.02
C       6.07       2.79      15.72
C       5.24       3.66      14.77
O       9.35       0.69      17.50
O       8.44       2.73      17.50
O       6.73       1.76      10.85
O       7.99      -0.08      10.96
