20

F       1.66       1.53       5.61
H       4.99       1.96       5.62
H       2.96       0.55       3.36
H       4.12       4.56       5.74
H       5.73       4.23       4.96
H       4.79       5.71       4.53
H       4.66       3.99       2.75
H       3.05       4.42       3.48
C       2.95       1.59       6.04
C       3.11       1.59       3.08
C       3.74       2.42       3.92
C       3.97       1.89       5.24
C       2.39       2.05       1.92
C       3.28       1.41       7.42
C       4.01       3.90       3.66
C       4.71       4.64       4.80
O       3.14       0.25       7.93
O       1.40       1.35       1.51
O       2.70       3.17       1.45
O       4.08       2.28       7.87
