20

H      -1.74       7.53       2.82
H       1.03       6.43       3.56
H       0.87       7.26       5.46
H      -3.69       8.24       3.68
H      -3.68       6.43       3.80
H      -4.72       7.43       4.88
H      -2.82       6.55       6.08
H      -2.80       8.35       6.02
C      -0.14       7.36       5.82
C       0.14       6.66       2.98
C      -0.92       7.30       3.50
C      -1.18       7.40       4.95
C      -0.03       5.90       1.76
C      -0.23       7.55       7.27
C      -2.64       7.44       5.44
C      -3.74       7.38       4.37
O       0.86       7.37       7.98
O      -1.34       7.18       7.81
O       0.99       5.35       1.25
O      -1.21       5.58       1.42
