19

Cu       4.12      -0.00      20.97
C       3.16      -1.53      18.21
C       5.09       1.53      23.73
C       1.51       1.85      21.02
C       3.61      -1.39      23.68
C       6.73      -1.86      20.92
C       4.64       1.39      18.27
N       2.64      -1.03      19.32
N       1.28      -0.84      19.11
N       5.60       1.03      22.63
N       6.96       0.84      22.84
N       2.82       1.68      21.16
N       3.44       2.93      21.09
N       3.09      -0.93      22.55
N       1.71      -0.89      22.69
N       5.43      -1.69      20.79
N       4.80      -2.93      20.86
N       5.16       0.93      19.39
N       6.54       0.89      19.26
