19

Cu       0.02       4.36      10.49
C       2.63       2.50      10.53
C       0.53       5.75      13.19
C      -2.59       6.22      10.44
C      -0.50       2.97       7.79
C       0.98       5.89       7.73
C      -0.95       2.83      13.24
N       1.32       2.68      10.67
N       0.70       1.43      10.60
N       1.05       5.30      12.06
N       2.43       5.25      12.20
N      -1.29       6.04      10.30
N      -0.66       7.29      10.37
N      -1.02       3.43       8.91
N      -2.40       3.47       8.78
N       1.50       5.39       8.84
N       2.86       5.20       8.62
N      -1.46       3.33      12.14
N      -2.83       3.52      12.35
