192

Nd       8.02       3.54       0.24
Nd       2.96       4.59       5.47
Nd       1.12      -2.04       6.92
Nd      12.85       8.44       1.69
Nd       5.82       9.59       1.99
Nd       9.54       5.57       6.90
Nd       7.46      -0.93       5.17
Nd       2.12       0.29       0.26
Nd      16.82      10.81      -0.24
Nd       1.19       2.58       8.85
Nd       3.03       9.22       7.40
Nd      11.99       5.90      -1.69
Nd      19.02       4.75      -1.99
Nd      11.15       1.61       7.42
Nd      13.23       8.10       9.15
Nd       6.18      14.05      -0.26
C       5.51       3.70       2.99
C       5.76       5.52       1.84
C       4.85       5.75       2.87
C       4.04       6.89       3.32
C       6.34       6.35       0.76
C       8.97       4.05       3.64
C      10.18       5.23       2.30
C      10.51       5.52       3.65
C      11.44       6.48       4.27
C      10.65       5.62       1.00
C      10.81      10.20       4.17
C      12.26      11.33       5.32
C      12.91      10.65       4.29
C      14.31      10.52       3.84
C       4.39      -2.09       6.40
C       1.09      -0.96       3.52
C       1.51       0.68       4.86
C       1.59       1.11       3.51
C       1.97       2.39       2.89
C       1.61       1.27       6.16
C       7.65       7.25       4.24
C       7.50       9.29       4.94
C       8.27       8.55       5.84
C       8.95       8.84       7.11
C       7.07      10.71       4.85
C       9.23       8.68       1.43
C       8.89      10.77       0.97
C      10.26      10.45       0.82
C      11.45      11.26       0.50
C       8.05      11.91       0.75
C       4.52      -0.52       2.92
C       6.37       0.38       2.22
C       5.34       0.67       1.32
C       5.25       1.41       0.05
C       7.81       0.71       2.31
C       4.98       1.58       5.73
C       6.96       2.31       6.19
C       6.00       3.35       6.34
C       6.10       4.78       6.66
C       8.36       2.15       6.41
C      -1.36       3.47      11.33
C      19.08       8.83      -1.84
C      -0.70       1.42      11.45
C       0.11       0.28      11.00
C      18.50       8.00      -0.76
C      15.87      10.29      -3.64
C      14.66       9.11      -2.30
C      14.33       8.82      -3.65
C      13.40       7.86      -4.27
C      14.19       8.73      -1.00
C      14.04       4.14      -4.17
C      12.59       3.01      -5.32
C      11.93       3.69      -4.29
C      10.53       3.82      -3.84
C      12.16       2.09      -6.40
C       3.06       8.13      10.80
C       2.64       6.49       9.46
C       2.56       6.06      10.81
C       2.18       4.78      11.43
C       2.54       5.90       8.16
C      13.05      -0.08      10.08
C      17.34       5.05      -4.94
C      12.42      -1.38       8.48
C       3.50      12.68       7.21
C       5.37      10.80       9.47
C      15.61       5.66      -1.43
C      15.96       3.57      -0.97
C      14.58       3.89      -0.82
C      13.39       3.08      -0.50
C      16.79       2.44      -0.75
C      16.17       7.69      11.40
C      14.32       6.79      12.10
C       2.96      13.67      -1.32
C       3.05      12.93      -0.05
C      12.89       6.46      12.01
C      -0.83       5.60       8.59
C      13.74       4.86       8.13
C      -1.85       3.82       7.98
C      -1.95       2.39       7.66
C      12.33       5.02       7.91
N       4.72       4.59       3.57
N       6.17       4.19       1.94
N       9.15       4.28       2.34
N       9.73       4.76       4.47
N      11.98       9.97       3.59
N      10.91      11.03       5.22
N       1.20      -0.69       4.82
N       1.32       0.05       2.70
N       8.34       7.28       5.38
N       7.12       8.43       3.92
N       8.25       9.59       1.38
N      10.44       9.13       1.12
N       4.21       0.10       1.78
N       5.81      -0.38       3.24
N       6.25       1.18       5.78
N       4.76       2.84       6.04
N      -0.57       2.58      10.75
N      18.67      10.15      -1.94
N      15.69      10.06      -2.34
N      15.12       9.59      -4.47
N      12.87       4.38      -3.59
N      13.93       3.32      -5.22
N       2.95       7.86       9.50
N       6.97      14.30      -2.70
N      12.36      -0.11       8.94
N      17.72       5.91      -3.92
N      16.59       4.76      -1.38
N      14.40       5.21      -1.12
N       4.09      14.24      -1.78
N      14.88       7.55      11.08
N      14.45       6.00       8.54
N      -0.61       4.33       8.28
O       3.14       6.64       4.18
O       4.20       8.05       2.85
O       6.17       7.59       0.76
O       7.10       5.75      -0.02
O      11.31       6.60       5.54
O      12.31       7.09       3.57
O      11.69       6.37       0.83
O      10.05       5.17      -0.02
O      14.54       9.62       2.98
O       6.93      -3.10       4.31
O       5.55      -1.62       6.40
O       3.49      -1.73       7.18
O       2.13       2.34       1.62
O       2.06       3.45       3.59
O       1.74       2.55       6.33
O       1.52       0.53       7.18
O       9.36       7.83       7.77
O       9.08      10.01       7.55
O       7.57      11.57       5.62
O       6.33      10.98       3.89
O      12.57      10.66       0.67
O       3.02      -1.90       0.05
O       0.19      -1.34       0.23
O       6.82      11.83       1.05
O       4.17       1.26      -0.61
O       6.20       2.11      -0.39
O       8.30       1.57       1.54
O       8.42       0.20       3.27
O       5.02       5.45       6.49
O       7.19       5.26       7.11
O       9.09       3.08       6.93
O       8.90       1.05       6.11
O       1.01       0.53      10.14
O      20.64       6.29      -2.85
O      18.67       6.75      -0.76
O      17.74       8.59       0.02
O      13.53       7.74      -5.54
O      12.53       7.26      -3.57
O      13.15       7.98      -0.83
O      14.79       9.17       0.02
O      10.30       4.72      -2.98
O       9.61       3.10      -4.31
O      15.14       8.79       7.92
O       0.66       8.91       7.14
O       6.17      12.00      -1.62
O       2.09       3.73      10.73
O       2.41       4.62       7.99
O       2.63       6.64       7.14
O      11.33      -0.66       6.55
O       3.36      11.50       6.77
O       4.87       9.95       8.70
O      18.51       3.36      -3.89
O      12.27       3.68      -0.67
O      13.52       1.90      -0.05
O      -0.19       1.34      -0.23
O       1.48       2.52      -1.05
O       4.13      13.08       0.61
O      18.64      12.23       0.39
O      16.54      12.77      -1.54
O      12.28       6.97      11.05
O      -0.87       1.72       7.83
O      13.50       1.91       7.21
O      11.60       4.09       7.39
O      11.79       6.12       8.21
