32

H       7.73       5.49      15.12
H       9.61       2.21      13.07
H       7.59       1.53      16.84
H      10.08      -5.55      15.34
H       8.20      -2.27      17.39
H      10.22      -1.58      13.62
C       8.00       4.44      15.07
C       9.05       2.60      13.92
C       7.91       2.21      16.06
C       7.59       3.56      16.10
C       8.66       1.74      14.96
C       8.71       3.95      13.97
C       9.01       4.87      12.81
C       6.77       4.13      17.25
C       9.81      -4.49      15.39
C       8.75      -2.66      16.54
C       9.90      -2.27      14.40
C      10.22      -3.62      14.36
C       9.15      -1.80      15.50
C       9.10      -4.01      16.49
C       8.80      -4.92      17.65
C      11.04      -4.19      13.21
N       9.06       0.41      14.82
N       8.74      -0.46      15.64
O       8.67       6.10      12.93
O       9.52       4.35      11.79
O       6.85       5.37      17.40
O       6.05       3.32      17.94
O       9.13      -6.16      17.53
O       8.28      -4.41      18.67
O      10.96      -5.43      13.06
O      11.76      -3.38      12.52
