57

N       7.96       9.69       8.45
N       2.70       2.35       8.91
C       2.17       2.82       7.77
N       8.68       1.75      -0.19
C       4.32       3.51       6.96
C       2.94       3.43       6.78
C       4.88       2.98       8.13
C       8.75       3.07      -0.48
C       8.40       4.07       0.42
C       7.90       3.69       1.68
C       7.89       2.33       2.01
C       8.30       1.41       1.05
C       6.51       4.22       3.53
C       4.64       4.88       5.02
C       5.31       6.44       3.17
C       6.81       6.18       5.07
C       2.69       6.24       0.64
C       5.81       5.42       4.18
C       2.10       7.10      -0.27
N       2.48       8.39      -0.42
O       7.43       4.67       2.50
O       5.19       4.08       6.08
O       4.26       5.88       2.36
O       6.08       7.27       5.68
C       4.04       2.43       9.08
H       9.76       8.85       7.90
H       8.79       7.36       6.17
H       4.92       9.08       7.10
H       6.08      10.49       8.82
H       3.77       9.89       0.19
H       4.90       8.53       1.90
H       2.38       5.20       0.71
H       1.30       6.77      -0.93
H       1.10       2.68       7.64
H       2.44       3.80       5.88
H       5.96       3.03       8.30
H       4.43       2.02      10.01
H       9.08       3.33      -1.48
H       8.46       5.12       0.14
H       7.61       1.96       2.99
H       8.33       0.35       1.31
H       7.06       3.64       4.29
H       5.76       3.56       3.06
H       4.06       5.71       5.45
H       3.97       4.28       4.38
H       4.91       7.32       3.70
H       6.14       6.75       2.52
H       7.20       5.52       5.86
H       7.64       6.56       4.46
C       8.70       8.86       7.69
C       8.14       8.03       6.73
C       6.76       8.08       6.53
C       6.00       9.01       7.25
C       6.63       9.78       8.21
C       3.48       8.86       0.35
C       4.11       8.08       1.31
C       3.71       6.74       1.46
