27

C       9.59      10.47      22.68
C       8.42       9.61      22.24
C       8.58       8.66      21.23
C       7.49       7.90      20.78
C       6.24       8.14      21.34
C       6.06       9.09      22.35
C       7.16       9.81      22.81
C       4.48       6.61      21.69
C       5.12       6.04      22.80
C       4.45       5.08      23.55
C       3.13       4.70      23.22
C       2.49       5.32      22.14
C       3.16       6.27      21.37
C       2.47       3.62      23.98
O      10.51      10.53      21.76
O       9.61      11.02      23.80
O       1.23       3.38      23.85
O       3.20       2.88      24.75
O       5.13       7.46      20.83
H       9.56       8.51      20.78
H       7.60       7.13      20.02
H       5.06       9.25      22.75
H       7.05      10.56      23.59
H       6.14       6.31      23.04
H       4.94       4.58      24.38
H       1.47       5.03      21.91
H       2.68       6.76      20.52
