736

H       6.71      11.67       9.14
H       0.98      11.76       9.63
H       4.11       8.37      13.05
H       6.71      21.78      24.30
H       0.98      21.68      23.81
H       4.11      25.07      20.39
H      22.93      24.30      11.66
H      17.20      23.81      11.76
H      20.32      20.39       8.37
H      22.93       9.14      21.78
H      17.20       9.63      21.68
H      20.32      13.05      25.07
H      11.00      21.99       9.20
H      16.74      21.82       9.71
H      13.64      25.46      12.89
H      11.00      11.45      24.24
H      16.74      11.62      23.73
H      13.64       7.98      20.55
H      27.21       9.20      11.45
H       0.53       9.71      11.62
H      29.85      12.89       7.98
H      27.21      24.24      21.99
H       0.53      23.73      21.82
H      29.85      20.55      25.46
H       6.41       5.94      16.36
H       8.58       8.67      12.97
H       9.91       7.39      14.51
H       5.07       7.21      14.82
H      11.69       6.08      16.72
H       8.04       7.16      18.54
H       9.24       8.36      20.24
H      12.89       7.27      18.41
H       8.03       4.16      18.27
H      10.05       1.86      14.49
H      10.07       4.26      14.58
H       8.02       1.75      18.20
H       6.41      27.50      17.09
H       8.58      24.77      20.47
H       9.91      26.05      18.93
H       5.07      26.24      18.62
H      11.69      27.37      16.72
H       8.04      26.28      14.90
H       9.24      25.08      13.20
H      12.89      26.17      15.03
H       8.03      29.28      15.17
H      10.05      31.58      18.95
H      10.07      29.18      18.86
H       8.02      31.69      15.24
H      22.62      17.09       5.94
H      24.79      20.47       8.67
H      26.12      18.93       7.39
H      21.28      18.62       7.20
H      27.90      16.72       6.07
H      24.25      14.90       7.16
H      25.45      13.20       8.36
H      29.10      15.03       7.27
H      24.24      15.17       4.16
H      26.26      18.95       1.86
H      26.28      18.86       4.26
H      24.23      15.24       1.75
H      22.62      16.35      27.50
H      24.79      12.97      24.77
H      26.12      14.51      26.05
H      21.28      14.82      26.24
H      27.90      16.72      27.37
H      24.25      18.54      26.28
H      25.45      20.24      25.08
H      29.10      18.41      26.17
H      24.24      18.27      29.28
H      26.26      14.49      31.58
H      26.28      14.58      29.18
H      24.23      18.20      31.69
H      27.69      27.48      16.98
H      25.61      24.70      20.36
H      24.24      25.95      18.85
H      29.08      26.25      18.51
H      22.35      27.38      16.80
H      25.84      26.13      14.80
H      24.51      24.91      13.23
H      21.00      26.18      15.22
H      25.85      29.28      15.02
H      24.13      31.51      18.98
H      24.14      29.11      18.87
H      25.82      31.69      15.12
H      27.69       5.96      16.47
H      25.61       8.74      13.08
H      24.24       7.49      14.59
H      29.07       7.19      14.93
H      22.35       6.06      16.64
H      25.84       7.31      18.64
H      24.51       8.53      20.21
H      21.00       7.27      18.23
H      25.85       4.16      18.42
H      24.13       1.93      14.46
H      24.14       4.33      14.57
H      25.82       1.75      18.33
H      11.48      16.47      27.48
H       9.40      13.08      24.70
H       8.03      14.59      25.95
H      12.86      14.93      26.25
H       6.14      16.64      27.38
H       9.63      18.64      26.13
H       8.30      20.21      24.91
H       4.79      18.23      26.18
H       9.64      18.42      29.28
H       7.92      14.46      31.51
H       7.93      14.57      29.11
H       9.61      18.33      31.69
H      11.48      16.98       5.96
H       9.40      20.36       8.74
H       8.03      18.85       7.49
H      12.86      18.51       7.19
H       6.14      16.80       6.06
H       9.63      14.80       7.31
H       8.30      13.23       8.53
H       4.79      15.22       7.27
H       9.64      15.02       4.16
H       7.92      18.98       1.93
H       7.93      18.87       4.33
H       9.61      15.12       1.75
H      13.71      25.67      24.14
H       7.98      25.76      24.63
H      11.11      22.37      28.05
H      13.71       2.11       5.63
H       7.98       2.01       5.14
H      11.11       5.40       1.72
H      29.93       4.63      26.66
H      24.20       4.14      26.76
H      27.32       0.72      23.37
H      29.93      23.14       3.11
H      24.20      23.63       3.01
H      27.32      27.05       6.40
H      18.00       2.32      24.20
H      23.74       2.15      24.71
H      20.64       5.79      27.89
H      18.00      25.45       5.57
H      23.74      25.62       5.06
H      20.64      21.98       1.88
H       1.79      23.20      26.45
H       7.53      23.71      26.62
H       4.42      26.89      22.98
H       1.79       4.57       3.32
H       7.53       4.06       3.15
H       4.42       0.88       6.79
H      13.41      19.94      31.36
H      15.58      22.67      27.97
H      16.91      21.39      29.51
H      12.07      21.21      29.82
H      18.69      20.08      31.72
H      15.04      21.16      33.54
H      16.24      22.36       1.57
H      19.89      21.27      33.41
H      15.03      18.16      33.27
H      17.05      15.86      29.49
H      17.07      18.26      29.58
H      15.02      15.75      33.20
H      13.41       7.83      32.09
H      15.58       5.10       1.80
H      16.91       6.38       0.26
H      12.07       6.57      33.62
H      18.69       7.70      31.72
H      15.04       6.61      29.90
H      16.24       5.41      28.20
H      19.89       6.50      30.03
H      15.03       9.61      30.17
H      17.05      11.91       0.28
H      17.07       9.51       0.19
H      15.02      12.02      30.24
H      29.62      31.09      20.94
H      31.79       0.80      23.67
H       0.70      32.93      22.39
H      28.28      32.62      22.20
H       2.47      30.72      21.07
H      31.25      28.90      22.16
H       0.03      27.20      23.36
H       3.68      29.03      22.27
H      31.24      29.17      19.16
H       0.83      32.95      16.86
H       0.86      32.86      19.26
H      31.23      29.24      16.75
H      29.62      30.35       8.83
H      31.79      26.97       6.10
H       0.70      28.51       7.38
H      28.28      28.82       7.57
H       2.47      30.72       8.70
H      31.25      32.54       7.61
H       0.03       0.57       6.41
H       3.68      32.41       7.50
H      31.24      32.27      10.61
H       0.83      28.49      12.91
H       0.86      28.58      10.51
H      31.23      32.20      13.02
H       2.26       7.81      31.98
H       0.18       5.03       1.69
H      31.24       6.28       0.18
H       3.65       6.58      33.51
H      29.35       7.71      31.80
H       0.42       6.46      29.80
H      31.51       5.24      28.23
H      28.00       6.51      30.22
H       0.42       9.61      30.02
H      31.13      11.84       0.31
H      31.14       9.44       0.20
H       0.39      12.02      30.12
H       2.26      19.96      31.47
H       0.18      22.74      28.08
H      31.24      21.49      29.59
H       3.65      21.19      29.93
H      29.35      20.06      31.64
H       0.42      21.31      33.64
H      31.51      22.53       1.54
H      28.00      21.27      33.23
H       0.42      18.16      33.42
H      31.13      15.93      29.46
H      31.14      18.33      29.57
H       0.39      15.75      33.33
H      18.48      30.47       8.81
H      16.40      27.08       6.03
H      15.03      28.59       7.28
H      19.86      28.93       7.58
H      13.14      30.64       8.71
H      16.63      32.64       7.46
H      15.30       0.54       6.24
H      11.79      32.23       7.51
H      16.64      32.42      10.61
H      14.92      28.46      12.84
H      14.93      28.57      10.44
H      16.61      32.33      13.02
H      18.48      30.98      20.96
H      16.40       0.69      23.74
H      15.03      32.85      22.49
H      19.86      32.51      22.19
H      13.14      30.80      21.06
H      16.63      28.80      22.31
H      15.30      27.23      23.53
H      11.79      29.22      22.27
H      16.64      29.02      19.16
H      14.92      32.98      16.93
H      14.93      32.87      19.33
H      16.61      29.12      16.75
C       2.60      10.90      10.51
C       4.85      11.41       9.94
C       4.39       9.81      11.62
C       4.80       8.91      12.57
C       1.24      11.08      10.31
C       5.81      12.08       9.21
C       2.60      22.54      22.93
C       4.85      22.03      23.50
C       4.39      23.63      21.82
C       4.80      24.53      20.87
C       1.24      22.36      23.13
C       5.81      21.36      24.23
C      18.82      22.93      10.90
C      21.07      23.50      11.41
C      20.60      21.82       9.81
C      21.01      20.87       8.91
C      17.46      23.13      11.08
C      22.03      24.23      12.08
C      18.82      10.51      22.54
C      21.07       9.94      22.03
C      20.60      11.62      23.63
C      21.01      12.58      24.53
C      17.45      10.31      22.36
C      22.02       9.21      21.36
C      15.12      22.72      10.56
C      12.86      22.24       9.98
C      13.35      23.90      11.60
C      12.96      24.82      12.54
C      16.48      22.49      10.40
C      11.90      21.57       9.27
C      15.12      10.72      22.89
C      12.86      11.20      23.46
C      13.35       9.54      21.84
C      12.96       8.62      20.91
C      16.48      10.95      23.05
C      11.90      11.87      24.18
C      31.33      10.56      10.72
C      29.08       9.98      11.20
C      29.56      11.60       9.54
C      29.18      12.53       8.61
C       0.27      10.40      10.95
C      28.11       9.27      11.87
C      31.33      22.89      22.72
C      29.08      23.46      22.24
C      29.56      21.84      23.90
C      29.18      20.91      24.83
C       0.27      23.05      22.49
C      28.11      24.18      21.57
C       9.76       6.51      17.49
C       8.27       6.55      15.56
C       9.06       4.42      16.44
C       6.87       6.51      15.64
C       6.09       7.25      14.73
C       6.70       8.05      13.74
C       8.11       8.09      13.67
C       8.89       7.35      14.57
C       9.06       7.17      18.52
C       9.77       7.87      19.51
C      11.18       7.90      19.51
C      11.87       7.24      18.47
C      11.17       6.54      17.47
C       8.46       3.68      17.48
C       8.46       2.27      17.44
C       9.05       1.59      16.35
C       9.62       2.33      15.29
C       9.64       3.74      15.34
C       9.76      26.93      15.95
C       8.27      26.89      17.88
C       9.06      29.03      17.01
C       6.87      26.94      17.81
C       6.09      26.20      18.71
C       6.70      25.40      19.70
C       8.11      25.35      19.77
C       8.89      26.09      18.87
C       9.06      26.27      14.93
C       9.77      25.57      13.93
C      11.18      25.54      13.94
C      11.87      26.20      14.97
C      11.17      26.90      15.97
C       8.47      29.76      15.96
C       8.46      31.17      16.00
C       9.05      31.85      17.09
C       9.62      31.11      18.15
C       9.64      29.70      18.10
C      25.97      15.95       6.51
C      24.49      17.88       6.55
C      25.27      17.01       4.42
C      23.08      17.81       6.51
C      22.30      18.71       7.25
C      22.91      19.70       8.05
C      24.32      19.77       8.09
C      25.10      18.87       7.35
C      25.28      14.92       7.17
C      25.98      13.93       7.87
C      27.39      13.94       7.90
C      28.08      14.97       7.24
C      27.38      15.97       6.54
C      24.68      15.96       3.68
C      24.68      16.00       2.27
C      25.26      17.10       1.59
C      25.83      18.15       2.33
C      25.85      18.10       3.74
C      25.97      17.49      26.93
C      24.49      15.56      26.89
C      25.27      16.44      29.02
C      23.08      15.64      26.94
C      22.30      14.73      26.19
C      22.91      13.74      25.40
C      24.32      13.67      25.35
C      25.10      14.57      26.09
C      25.28      18.52      26.27
C      25.98      19.51      25.57
C      27.39      19.50      25.54
C      28.08      18.47      26.20
C      27.38      17.47      26.90
C      24.68      17.48      29.76
C      24.68      17.44      31.17
C      25.26      16.35      31.85
C      25.84      15.29      31.11
C      25.85      15.34      29.70
C      24.22      26.87      15.94
C      25.84      26.84      17.78
C      24.99      28.98      16.94
C      27.25      26.91      17.70
C      28.06      26.18      18.59
C      27.48      25.38      19.61
C      26.07      25.30      19.67
C      25.26      26.03      18.78
C      24.82      26.15      14.89
C      24.04      25.45      13.96
C      22.62      25.45      14.05
C      22.02      26.17      15.11
C      22.81      26.87      16.04
C      25.47      29.75      15.85
C      25.45      31.15      15.91
C      24.96      31.82      17.05
C      24.49      31.05      18.14
C      24.49      29.65      18.08
C      24.22       6.57      17.50
C      25.84       6.60      15.66
C      24.99       4.46      16.50
C      27.25       6.54      15.75
C      28.06       7.26      14.85
C      27.48       8.06      13.84
C      26.07       8.14      13.77
C      25.26       7.42      14.67
C      24.82       7.29      18.55
C      24.04       7.99      19.48
C      22.62       7.99      19.39
C      22.02       7.27      18.33
C      22.81       6.57      17.40
C      25.47       3.69      17.59
C      25.45       2.29      17.53
C      24.96       1.62      16.39
C      24.49       2.39      15.30
C      24.49       3.79      15.36
C       8.00      17.50      26.87
C       9.63      15.66      26.84
C       8.78      16.50      28.98
C      11.04      15.74      26.91
C      11.84      14.85      26.18
C      11.27      13.84      25.38
C       9.85      13.77      25.30
C       9.05      14.67      26.03
C       8.61      18.55      26.15
C       7.82      19.48      25.45
C       6.41      19.39      25.45
C       5.81      18.33      26.17
C       6.60      17.40      26.87
C       9.26      17.59      29.75
C       9.24      17.53      31.16
C       8.74      16.39      31.82
C       8.28      15.30      31.05
C       8.28      15.36      29.65
C       8.00      15.94       6.57
C       9.63      17.78       6.60
C       8.78      16.94       4.46
C      11.04      17.70       6.54
C      11.84      18.59       7.26
C      11.27      19.60       8.06
C       9.85      19.67       8.14
C       9.05      18.78       7.42
C       8.61      14.89       7.29
C       7.82      13.96       8.00
C       6.41      14.05       7.99
C       5.81      15.11       7.28
C       6.60      16.04       6.57
C       9.26      15.85       3.69
C       9.24      15.91       2.29
C       8.74      17.05       1.62
C       8.27      18.14       2.39
C       8.28      18.08       3.79
C       9.60      24.90      25.51
C      11.85      25.41      24.94
C      11.39      23.81      26.62
C      11.80      22.91      27.57
C       8.24      25.08      25.31
C      12.81      26.08      24.21
C       9.60       2.87       4.26
C      11.85       2.36       4.83
C      11.39       3.96       3.15
C      11.80       4.86       2.20
C       8.24       2.69       4.46
C      12.81       1.69       5.56
C      25.82       3.26      25.90
C      28.07       3.83      26.41
C      27.60       2.15      24.81
C      28.01       1.20      23.91
C      24.46       3.46      26.08
C      29.03       4.56      27.08
C      25.82      24.51       3.87
C      28.07      23.94       3.36
C      27.60      25.62       4.96
C      28.01      26.58       5.86
C      24.45      24.31       3.69
C      29.02      23.21       2.69
C      22.12       3.05      25.56
C      19.86       2.57      24.98
C      20.35       4.23      26.60
C      19.96       5.15      27.54
C      23.48       2.82      25.40
C      18.90       1.90      24.27
C      22.12      24.72       4.22
C      19.86      25.20       4.79
C      20.35      23.54       3.17
C      19.96      22.62       2.24
C      23.48      24.95       4.38
C      18.90      25.87       5.51
C       5.91      24.56      25.72
C       3.65      23.98      26.20
C       4.14      25.60      24.54
C       3.75      26.53      23.61
C       7.27      24.40      25.95
C       2.68      23.27      26.87
C       5.91       3.22       4.05
C       3.65       3.79       3.57
C       4.14       2.17       5.23
C       3.75       1.24       6.16
C       7.27       3.38       3.82
C       2.68       4.51       2.90
C      16.76      20.51      32.49
C      15.27      20.55      30.56
C      16.06      18.42      31.44
C      13.87      20.51      30.64
C      13.09      21.25      29.73
C      13.70      22.05      28.74
C      15.11      22.09      28.67
C      15.89      21.35      29.57
C      16.06      21.17      33.52
C      16.77      21.87       0.84
C      18.18      21.90       0.84
C      18.87      21.24      33.47
C      18.17      20.54      32.47
C      15.46      17.68      32.48
C      15.46      16.27      32.44
C      16.05      15.59      31.35
C      16.62      16.33      30.29
C      16.64      17.74      30.34
C      16.76       7.26      30.95
C      15.27       7.22      32.88
C      16.06       9.36      32.01
C      13.87       7.27      32.81
C      13.09       6.53       0.04
C      13.70       5.73       1.03
C      15.11       5.68       1.10
C      15.89       6.42       0.20
C      16.06       6.60      29.93
C      16.77       5.90      28.93
C      18.18       5.87      28.94
C      18.87       6.53      29.97
C      18.17       7.23      30.97
C      15.47      10.09      30.96
C      15.46      11.50      31.00
C      16.05      12.18      32.09
C      16.62      11.44      33.15
C      16.64      10.03      33.10
C       0.55      29.95      21.51
C      31.49      31.88      21.55
C      32.27      31.01      19.42
C      30.08      31.81      21.51
C      29.30      32.71      22.25
C      29.91       0.03      23.05
C      31.32       0.10      23.09
C      32.10      32.87      22.35
C      32.28      28.92      22.17
C       0.55      27.93      22.87
C       1.96      27.94      22.90
C       2.66      28.97      22.24
C       1.96      29.97      21.54
C      31.68      29.96      18.68
C      31.68      30.00      17.27
C      32.26      31.10      16.59
C       0.41      32.15      17.33
C       0.43      32.10      18.74
C       0.55      31.49       8.26
C      31.49      29.56       8.22
C      32.27      30.44      10.35
C      30.08      29.64       8.27
C      29.30      28.73       7.52
C      29.91      27.74       6.73
C      31.32      27.67       6.68
C      32.10      28.57       7.42
C      32.28      32.52       7.60
C       0.55      33.51       6.90
C       1.96      33.50       6.87
C       2.66      32.47       7.53
C       1.96      31.47       8.23
C      31.68      31.48      11.09
C      31.68      31.44      12.50
C      32.26      30.35      13.18
C       0.41      29.29      12.44
C       0.43      29.34      11.03
C      31.22       7.20      30.94
C       0.42       7.17      32.78
C      31.99       9.31      31.94
C       1.82       7.24      32.70
C       2.63       6.51      33.59
C       2.06       5.71       0.94
C       0.64       5.63       1.00
C      32.26       6.36       0.11
C      31.82       6.48      29.89
C      31.04       5.78      28.96
C      29.62       5.78      29.05
C      29.02       6.50      30.11
C      29.81       7.20      31.04
C       0.05      10.08      30.85
C       0.03      11.48      30.91
C      31.96      12.15      32.05
C      31.49      11.38      33.14
C      31.49       9.98      33.08
C      31.22      20.57      32.50
C       0.42      20.60      30.66
C      31.99      18.46      31.50
C       1.82      20.54      30.75
C       2.63      21.26      29.85
C       2.06      22.06      28.84
C       0.64      22.14      28.77
C      32.26      21.42      29.67
C      31.82      21.29      33.55
C      31.04      21.99       0.81
C      29.62      21.99       0.72
C      29.02      21.27      33.33
C      29.81      20.57      32.40
C       0.05      17.69      32.59
C       0.03      16.29      32.53
C      31.96      15.62      31.39
C      31.49      16.39      30.30
C      31.49      17.79      30.36
C      15.00      31.50       8.20
C      16.63      29.66       8.17
C      15.78      30.50      10.31
C      18.04      29.74       8.24
C      18.84      28.85       7.51
C      18.27      27.84       6.71
C      16.85      27.77       6.63
C      16.05      28.67       7.36
C      15.61      32.55       7.48
C      14.82      33.48       6.78
C      13.41      33.39       6.78
C      12.81      32.33       7.50
C      13.60      31.40       8.20
C      16.26      31.59      11.08
C      16.24      31.53      12.49
C      15.74      30.39      13.15
C      15.28      29.30      12.38
C      15.28      29.36      10.98
C      15.00      29.94      21.57
C      16.63      31.78      21.60
C      15.78      30.94      19.46
C      18.04      31.70      21.54
C      18.84      32.59      22.26
C      18.27      33.60      23.06
C      16.85       0.00      23.14
C      16.05      32.78      22.42
C      15.61      28.89      22.29
C      14.82      27.96      23.00
C      13.41      28.05      22.99
C      12.81      29.11      22.28
C      13.60      30.04      21.57
C      16.26      29.85      18.69
C      16.24      29.91      17.29
C      15.74      31.05      16.62
C      15.27      32.14      17.39
C      15.28      32.08      18.79
N       3.51      11.60       9.77
N       5.27      10.51      10.86
N       3.06      10.01      11.43
N       3.51      21.84      23.67
N       5.27      22.93      22.58
N       3.06      23.43      22.01
N      19.73      23.67      11.60
N      21.48      22.58      10.51
N      19.28      22.01      10.01
N      19.73       9.77      21.84
N      21.48      10.87      22.93
N      19.28      11.43      23.43
N      14.20      22.02       9.83
N      12.46      23.19      10.87
N      14.67      23.65      11.43
N      14.20      11.43      23.61
N      12.46      10.25      22.57
N      14.67       9.79      22.01
N      30.41       9.83      11.43
N      28.67      10.87      10.25
N      30.88      11.43       9.79
N      30.41      23.61      22.02
N      28.67      22.57      23.19
N      30.88      22.01      23.65
N       9.06       5.83      16.47
N       9.06       0.28      16.25
N      11.77       8.63      20.44
N       6.04       8.79      12.87
N       9.06      27.62      16.97
N       9.06      33.17      17.19
N      11.77      24.81      13.00
N       6.04      24.65      20.57
N      25.27      16.97       5.83
N      25.27      17.19       0.28
N      27.98      13.00       8.63
N      22.25      20.57       8.79
N      25.27      16.47      27.62
N      25.27      16.25      33.17
N      27.98      20.44      24.81
N      22.25      12.87      24.65
N      25.02      27.57      16.88
N      24.95      33.14      17.18
N      21.81      24.77      13.23
N      28.31      24.71      20.41
N      25.02       5.88      16.56
N      24.95       0.30      16.26
N      21.81       8.67      20.21
N      28.31       8.74      13.03
N       8.81      16.56      27.57
N       8.73      16.26      33.14
N       5.60      20.21      24.77
N      12.09      13.03      24.71
N       8.81      16.88       5.88
N       8.73      17.18       0.30
N       5.60      13.23       8.67
N      12.09      20.41       8.73
N      10.51      25.60      24.77
N      12.27      24.51      25.86
N      10.06      24.01      26.43
N      10.51       2.17       5.00
N      12.27       3.26       3.91
N      10.06       3.76       3.34
N      26.73       4.00      26.60
N      28.48       2.91      25.51
N      26.28       2.34      25.01
N      26.73      23.77       3.17
N      28.48      24.87       4.26
N      26.28      25.43       4.76
N      21.20       2.35      24.83
N      19.46       3.52      25.87
N      21.67       3.98      26.43
N      21.20      25.43       4.94
N      19.46      24.25       3.90
N      21.67      23.79       3.34
N       4.99      23.83      26.43
N       3.25      24.87      25.25
N       5.46      25.43      24.79
N       4.99       3.94       3.35
N       3.25       2.90       4.52
N       5.46       2.34       4.98
N      16.06      19.83      31.47
N      16.06      14.28      31.25
N      18.77      22.63       1.77
N      13.04      22.79      27.87
N      16.06       7.95      31.97
N      16.06      13.50      32.19
N      18.77       5.14      28.00
N      13.04       4.98       1.90
N      32.27      30.97      20.83
N      32.27      31.19      15.28
N       2.55      27.00      23.63
N      29.25       0.90      23.79
N      32.27      30.47       8.95
N      32.27      30.25      14.50
N       2.55       0.77       6.14
N      29.25      26.87       5.98
N      32.02       7.90      31.88
N      31.95      13.47      32.18
N      28.82       5.10      28.23
N       2.88       5.04       1.74
N      32.02      19.88      31.56
N      31.95      14.30      31.26
N      28.81      22.67       1.54
N       2.88      22.74      28.03
N      15.81      30.56       8.90
N      15.73      30.26      14.47
N      12.60       0.54       6.10
N      19.09      27.03       6.04
N      15.81      30.88      20.88
N      15.73      31.18      15.30
N      12.60      27.23      23.67
N      19.09       0.74      23.73
