9

Cd       4.35       4.25       3.69
N       4.35       1.52       5.71
C       6.17       4.27       2.41
C       4.32       6.03       5.03
C       4.34       2.43       4.97
C       2.57       4.26       2.36
N       1.67       4.27       1.60
N       4.30       6.93       5.78
N       7.08       4.27       1.68
