17

N       4.35       1.52       5.71
N       4.15       1.61       8.98
Cd       4.27      -0.10       7.38
N       1.88      -0.14       7.18
H       6.98      -0.90       8.07
H       6.94       0.75       8.13
H       7.12      -0.02       6.68
H       1.56       0.70       6.69
H       1.60      -0.96       6.63
H       1.41      -0.18       8.09
C       4.14       2.50       9.74
C       4.19      -2.64       9.79
C       4.40      -2.71       5.03
C       4.34       2.43       4.97
N       4.19      -1.72       9.06
N       4.38      -1.81       5.78
N       6.66      -0.06       7.59
