15

C      12.59       7.89      13.64
O      15.34      11.19      18.47
O      17.16      10.46      17.30
O      11.40       7.67      13.84
O      13.27       7.48      12.59
H      16.60       9.29      15.21
H      13.17      10.57      17.46
H      11.72       9.37      15.74
C      15.53       9.31      15.37
C      14.99       9.96      16.49
C      13.60      10.01      16.63
C      12.81       9.35      15.70
C      13.42       8.68      14.64
C      15.90      10.60      17.50
N      14.76       8.69      14.47
