15

O       9.03       3.82       2.46
O      10.85       4.54       3.63
O       5.14       7.40       7.11
C       9.24       5.69       5.56
C       8.69       5.04       4.45
C       7.30       5.00       4.32
C       6.51       5.67       5.26
H      10.31       5.71       5.71
C       9.60       4.41       3.43
H       6.86       4.44       3.50
C       7.13       6.34       6.31
H       5.42       5.66       5.22
C       6.33       7.13       7.32
O       7.01       7.50       8.39
N       8.48       6.32       6.47
