15

O       9.43       0.88       2.30
C       7.39      -1.85       5.52
C       8.48      -2.72       5.67
C       9.61      -2.50       4.89
C       9.64      -1.40       4.02
C       8.54      -0.55       3.97
C       8.38      -3.81       6.72
C       8.46       0.69       3.10
O       7.43       1.42       3.22
O       9.22      -4.76       6.66
O       7.46      -3.64       7.57
H       6.47      -2.00       6.06
H      10.46      -3.17       4.97
H      10.50      -1.19       3.39
N       7.43      -0.78       4.71
