13

O       3.48      13.56       9.44
O       1.58      14.06      10.51
C       2.44      13.22      10.09
C       2.25      11.73      10.35
C       0.04      10.56      10.42
H       2.26      11.22       9.38
H       3.13      11.39      10.91
C      -0.93      11.37       9.56
H      -0.57      10.05      11.18
H       0.52       9.80       9.80
O      -0.87      12.65       9.63
O      -1.76      10.79       8.82
N       1.02      11.43      11.11
