13

O       4.12       5.24       5.04
O       6.03       4.58       6.00
C       5.17       4.52       5.07
C       5.36       3.54       3.91
C       7.56       2.89       2.94
C       8.53       4.04       3.20
O       8.48       4.63       4.34
H       5.34       4.13       2.98
H       4.48       2.89       3.90
O       9.37       4.39       2.32
H       8.17       1.98       2.87
H       7.08       3.05       1.96
N       6.59       2.73       4.03
