520

Si      24.48       0.67      28.86
Si       9.92       0.81      28.87
Si       0.65       9.92       7.45
Si       0.81      24.48       7.44
Si      24.47       0.68      14.12
Si       9.91       0.79      14.12
Si       0.78      24.48      35.54
Si       0.67       9.92      35.55
H      27.61      29.97      28.73
H      26.28      31.65      27.72
H      25.95      30.91      32.50
H      24.62      32.61      31.50
H      23.83       2.62      30.91
H      25.17       4.25      31.99
H      28.47       3.14      29.61
H      27.15       1.50      28.52
H      25.26       2.69      26.94
H      25.23       2.70      24.57
H      23.55      31.76      24.57
H      23.59      31.73      26.94
H      22.64      31.64      29.93
H      22.54       2.68      28.45
H      20.18       2.71      28.75
H      20.29      31.70      30.26
H       6.82       4.47      28.77
H       8.14       2.79      27.74
H       8.46       3.48      32.52
H       9.79       1.79      31.51
H      10.56      31.77      30.89
H       9.22      30.16      31.99
H       5.90      31.33      29.65
H       7.23       0.01      28.55
H       9.08      31.75      26.94
H       9.10      31.75      24.57
H      10.86       2.66      24.57
H      10.83       2.68      26.95
H      11.79       2.72      29.98
H      11.82      31.72      28.39
H      14.18      31.64      28.67
H      14.14       2.61      30.28
H      29.92       6.82       7.31
H      31.62       8.14       6.30
H      30.90       8.44      11.08
H      32.60       9.77      10.08
H       2.62      10.57       9.48
H       4.24       9.23      10.56
H       3.09       5.91       8.21
H       1.46       7.24       7.12
H       2.66       9.10       5.52
H       2.66       9.12       3.15
H      31.75      10.86       3.15
H      31.72      10.84       5.52
H      31.64      11.77       8.54
H       2.66      11.85       7.01
H       2.71      14.21       7.31
H      31.72      14.12       8.86
H       4.47      27.58       7.33
H       2.78      26.26       6.30
H       3.47      25.94      11.09
H       1.78      24.62      10.08
H      31.77      23.83       9.46
H      30.16      25.17      10.56
H      31.31      28.49       8.22
H       0.01      27.16       7.12
H      31.74      25.30       5.51
H      31.73      25.27       3.14
H       2.65      23.54       3.14
H       2.68      23.57       5.52
H       2.72      22.61       8.55
H      31.73      22.57       6.96
H      31.65      20.21       7.24
H       2.62      20.26       8.86
H      28.41       3.26      13.41
H      27.10       1.62      14.52
H      25.14       4.17      10.90
H      23.83       2.54      12.00
H      24.56      32.57      11.50
H      25.92      30.90      10.49
H      27.74      30.10      14.21
H      26.40      31.77      15.24
H      23.75      31.67      16.05
H      23.74      31.70      18.43
H      25.04       2.78      18.40
H      25.07       2.77      16.03
H      22.53       2.69      14.46
H      22.65      31.59      13.15
H      20.29      31.63      12.83
H      20.17       2.71      14.16
H       5.95      31.20      13.39
H       7.26      32.84      14.50
H       9.24      30.19      10.94
H      10.56      31.82      12.04
H       9.84       1.81      11.49
H       8.49       3.49      10.47
H       6.71       4.35      14.19
H       8.03       2.68      15.23
H      10.68       2.72      16.04
H      10.67       2.71      18.42
H       9.26      31.66      18.41
H       9.24      31.67      16.04
H      11.82      31.69      14.55
H      11.79       2.74      13.09
H      14.14       2.64      12.79
H      14.17      31.62      14.27
H      31.12      28.41      34.85
H      32.75      27.10      35.96
H      30.24      25.16      32.30
H      31.87      23.84      33.40
H       1.84      24.57      32.93
H       3.50      25.93      31.92
H       4.27      27.76      35.65
H       2.60      26.41      36.66
H       2.72      23.76      37.47
H       2.70      23.75      39.85
H      31.60      25.03      39.82
H      31.62      25.06      37.45
H      31.70      22.52      35.83
H       2.83      22.67      34.61
H       2.81      20.31      34.30
H      31.70      20.16      35.52
H       3.18       5.94      34.81
H       1.54       7.26      35.91
H       4.21       9.24      32.38
H       2.58      10.56      33.47
H      32.58       9.85      32.92
H      30.90       8.52      31.89
H      30.03       6.72      35.61
H      31.71       8.04      36.65
H      31.68      10.69      37.47
H      31.69      10.69      39.85
H       2.73       9.26      39.84
H       2.72       9.23      37.47
H       2.72      11.81      35.96
H      31.66      11.80      34.54
H      31.76      14.15      34.24
H       2.80      14.16      35.68
H      30.96      29.32      32.44
H      26.42      27.81      31.65
H      27.94      26.40      32.84
H       3.41       5.09      32.39
H       8.00       6.56      31.78
H       6.46       7.95      32.96
H      29.30       3.44      11.01
H      27.79       7.99      10.25
H      26.38       6.45      11.43
H       5.08      30.97      10.99
H       6.57      26.40      10.31
H       7.97      27.94      11.50
H       3.36       5.08      10.62
H       7.98       6.48      11.16
H       6.45       7.89       9.98
H      31.06      29.32      10.63
H      26.44      27.94      11.19
H      27.96      26.52      10.00
H       5.08      31.08      32.06
H       6.45      26.45      32.63
H       7.86      27.97      31.44
H      29.32       3.40      32.01
H      27.89       8.00      32.60
H      26.48       6.46      31.42
H      15.96       0.95      31.66
H      18.43       0.44      27.52
H      16.05       0.36      27.49
H       0.92      18.44      10.25
H       0.50      15.97       6.09
H       0.43      18.35       6.06
H      15.96       1.05      11.36
H      18.44       0.30      15.47
H      16.05       0.26      15.50
H       0.30      15.96      32.82
H       1.35      18.46      36.84
H       1.38      16.07      36.89
H      26.46       1.25      22.72
H      22.39       0.26      20.27
H      22.37       0.24      22.66
H       7.89       0.30      22.73
H      11.98       1.20      20.28
H      12.01       1.22      22.66
H       1.17       7.90       1.31
H       0.28      11.99      41.70
H       0.27      12.01       1.24
H       0.24      26.47       1.28
H       1.20      22.40      41.70
H       1.23      22.37       1.24
C      20.03       0.76      29.57
C      20.70       1.88      29.04
C      22.10       1.85      28.87
C      22.85       0.71      29.22
C      22.16      32.52      29.74
C      20.77      32.55      29.92
C      24.49       0.71      27.20
C      23.95      32.56      26.46
C      23.91      32.58      25.06
C      24.40       0.75      24.34
C      24.90       1.86      25.06
C      24.93       1.85      26.47
C      25.33       1.92      29.55
C      25.25      32.27      29.49
C      26.14      31.47      28.71
C      26.93      30.48      29.31
C      26.86      30.25      30.70
C      25.98      31.02      31.48
C      25.20      32.03      30.88
C      24.79       2.74      30.58
C      25.58       3.71      31.23
C      26.95       3.87      30.89
C      27.49       3.05      29.88
C      26.70       2.09      29.23
C      14.38       0.64      29.54
C      13.68      32.48      28.98
C      12.28      32.53      28.82
C      11.55       0.74      29.21
C      12.26       1.84      29.75
C      13.65       1.78      29.93
C       9.89       0.78      27.20
C      10.45       1.86      26.47
C      10.48       1.85      25.06
C       9.96       0.75      24.34
C       9.44      32.58      25.06
C       9.42      32.59      26.47
C       9.06      32.49      29.56
C       9.16       2.15      29.50
C       8.28       2.96      28.73
C       7.49       3.95      29.34
C       7.56       4.16      30.73
C       8.44       3.38      31.51
C       9.22       2.38      30.90
C       9.60      31.67      30.57
C       8.80      30.71      31.23
C       7.43      30.57      30.92
C       6.89      31.40      29.91
C       7.68      32.35      29.25
C       0.77      14.37       8.15
C       1.88      13.69       7.61
C       1.84      12.30       7.44
C       0.70      11.54       7.80
C      32.52      12.24       8.33
C      32.56      13.64       8.52
C       0.69       9.90       5.78
C      32.55      10.46       5.05
C      32.56      10.49       3.64
C       0.73       9.97       2.92
C       1.83       9.46       3.65
C       1.82       9.44       5.05
C       1.90       9.06       8.14
C      32.24       9.15       8.07
C      31.44       8.28       7.29
C      30.44       7.49       7.89
C      30.22       7.55       9.28
C      31.00       8.42      10.07
C      32.01       9.20       9.47
C       2.73       9.60       9.15
C       3.69       8.81       9.80
C       3.84       7.44       9.48
C       3.01       6.90       8.47
C       2.05       7.69       7.82
C       0.65      20.02       8.11
C      32.49      20.72       7.56
C      32.53      22.11       7.39
C       0.75      22.85       7.78
C       1.85      22.14       8.32
C       1.79      20.75       8.50
C       0.77      24.51       5.77
C       1.85      23.95       5.04
C       1.84      23.91       3.63
C       0.73      24.42       2.91
C      32.57      24.93       3.63
C      32.58      24.96       5.04
C      32.49      25.34       8.13
C       2.15      25.24       8.07
C       2.95      26.12       7.30
C       3.95      26.91       7.91
C       4.16      26.84       9.30
C       3.38      25.96      10.07
C       2.38      25.19       9.47
C      31.66      24.80       9.14
C      30.71      25.59       9.80
C      30.56      26.96       9.49
C      31.39      27.51       8.48
C      32.34      26.71       7.82
C      20.03       0.72      13.43
C      20.77      32.49      13.13
C      22.16      32.48      13.31
C      22.85       0.69      13.77
C      22.09       1.85      14.08
C      20.69       1.86      13.91
C      24.49       0.73      15.79
C      24.82       1.90      16.51
C      24.80       1.92      17.91
C      24.43       0.77      18.64
C      24.03      32.55      17.93
C      24.04      32.53      16.52
C      25.28      32.29      13.49
C      25.30       1.95      13.43
C      26.66       2.17      13.78
C      27.43       3.13      13.12
C      26.90       3.89      12.06
C      25.55       3.67      11.69
C      24.77       2.71      12.35
C      25.18      32.02      12.11
C      25.98      31.03      11.50
C      26.92      30.31      12.27
C      27.03      30.58      13.65
C      26.22      31.56      14.25
C      14.37       0.65      13.47
C      13.65       1.80      13.12
C      12.26       1.86      13.29
C      11.54       0.74      13.79
C      12.28      32.52      14.15
C      13.67      32.47      13.99
C       9.88       0.76      15.79
C       9.51      32.53      16.52
C       9.54      32.52      17.92
C       9.94       0.73      18.65
C      10.37       1.87      17.93
C      10.36       1.87      16.52
C       9.14       2.12      13.49
C       9.07      32.46      13.43
C       7.71      32.27      13.77
C       6.93      31.31      13.11
C       7.47      30.52      12.07
C       8.83      30.71      11.72
C       9.61      31.68      12.38
C       9.23       2.38      12.09
C       8.44       3.37      11.48
C       7.51       4.11      12.24
C       7.41       3.86      13.63
C       8.21       2.88      14.24
C       0.77      20.04      34.83
C       1.94      20.78      34.57
C       1.94      22.18      34.75
C       0.78      22.86      35.18
C      32.55      22.09      35.47
C      32.54      20.69      35.28
C       0.73      24.49      37.21
C      32.48      24.81      37.93
C      32.47      24.79      39.33
C       0.69      24.42      40.06
C       1.85      24.03      39.35
C       1.86      24.05      37.94
C       2.09      25.29      34.92
C      32.44      25.31      34.85
C      32.21      26.66      35.22
C      31.25      27.44      34.55
C      30.50      26.91      33.48
C      30.73      25.57      33.10
C      31.69      24.78      33.76
C       2.37      25.20      33.53
C       3.36      25.99      32.93
C       4.07      26.94      33.70
C       3.80      27.05      35.08
C       2.82      26.24      35.68
C       0.84      14.38      34.91
C      32.60      13.66      34.56
C      32.54      12.27      34.73
C       0.73      11.55      35.22
C       1.89      12.28      35.57
C       1.95      13.67      35.41
C       0.71       9.88      37.22
C       1.86       9.51      37.94
C       1.87       9.53      39.35
C       0.73       9.94      40.07
C      32.53      10.38      39.35
C      32.52      10.36      37.95
C      32.27       9.15      34.91
C       1.93       9.07      34.86
C       2.11       7.71      35.19
C       3.08       6.92      34.54
C       3.87       7.47      33.50
C       3.68       8.82      33.16
C       2.72       9.61      33.81
C      32.01       9.25      33.52
C      31.02       8.46      32.91
C      30.28       7.54      33.67
C      30.52       7.43      35.05
C      31.51       8.22      35.67
C      29.60      27.73      32.75
C      30.01      29.00      32.28
C      29.12      29.84      31.57
C      27.79      29.40      31.33
C      27.38      28.14      31.80
C      28.28      27.31      32.49
C       4.79       6.65      32.79
C       4.38       5.40      32.27
C       5.28       4.56      31.56
C       6.62       5.00      31.37
C       7.03       6.24      31.89
C       6.12       7.06      32.58
C      27.71       4.80      11.33
C      28.98       4.40      10.85
C      29.82       5.29      10.14
C      29.38       6.61       9.92
C      28.11       7.03      10.39
C      27.29       6.12      11.08
C       6.65      29.60      11.36
C       5.40      30.01      10.85
C       4.56      29.11      10.15
C       5.00      27.78       9.94
C       6.25      27.37      10.44
C       7.07      28.27      11.13
C       4.76       6.62      10.19
C       4.34       5.38      10.73
C       5.23       4.53      11.43
C       6.58       4.94      11.59
C       7.01       6.18      11.05
C       6.10       7.01      10.37
C      29.66      27.79      10.21
C      30.09      29.02      10.74
C      29.20      29.87      11.45
C      27.85      29.47      11.62
C      27.42      28.24      11.08
C      28.31      27.40      10.39
C       6.60      29.67      31.64
C       5.37      30.10      32.18
C       4.52      29.22      32.89
C       4.92      27.87      33.06
C       6.15      27.43      32.52
C       6.99      28.32      31.83
C      27.77       4.78      31.61
C      29.02       4.37      32.13
C      29.86       5.26      32.83
C      29.44       6.60      33.01
C      28.20       7.03      32.49
C      27.37       6.12      31.80
C      15.79       0.64      29.58
C      16.49       0.84      30.79
C      17.90       0.88      30.83
C      18.62       0.74      29.61
C      17.93       0.54      28.40
C      16.53       0.49      28.38
C       0.66      18.61       8.15
C       0.83      17.91       9.37
C       0.86      16.50       9.41
C       0.75      15.78       8.19
C       0.59      16.47       6.97
C       0.54      17.87       6.95
C      15.79       0.64      13.43
C      16.48       0.89      12.22
C      17.90       0.91      12.18
C      18.62       0.69      13.39
C      17.93       0.45      14.59
C      16.53       0.42      14.61
C       0.85      15.80      34.85
C       0.52      16.49      33.66
C       0.50      17.90      33.62
C       0.81      18.63      34.80
C       1.14      17.94      35.98
C       1.17      16.54      36.01
C      24.41       0.76      22.92
C      25.60       1.06      22.21
C      25.63       1.06      20.79
C      24.45       0.77      20.06
C      23.26       0.46      20.77
C      23.25       0.45      22.18
C       9.95       0.75      22.92
C       8.76       0.47      22.21
C       8.72       0.47      20.79
C       9.91       0.73      20.07
C      11.10       1.02      20.78
C      11.12       1.03      22.18
C       0.73       9.96       1.50
C       1.00       8.76       0.80
C       0.99       8.73      42.23
C       0.73       9.92      41.50
C       0.45      11.12      42.20
C       0.46      11.13       0.76
C       0.73      24.42       1.49
C       0.43      25.60       0.77
C       0.40      25.64      42.20
C       0.69      24.45      41.48
C       1.00      23.27      42.20
C       1.03      23.25       0.76
N      29.52      31.13      31.13
N       4.87       3.30      31.07
N      31.10       4.89       9.69
N       3.28      29.52       9.67
N       4.81       3.28      11.93
N      29.63      31.13      11.95
N       3.27      29.65      33.38
N      31.12       4.84      33.32
N      18.61       1.07      32.04
N       1.02      15.79      10.63
N      18.61       1.14      10.98
N       0.18      18.60      32.43
N      26.84       1.31      20.10
N       7.50       0.25      20.10
N       1.20       7.51      41.54
N       0.16      26.85      41.50
O      30.49      31.06      30.33
O      29.85      31.87      32.09
O       3.93       3.41      30.24
O       4.50       2.54      32.00
O      31.03       3.93       8.88
O      31.85       4.55      10.65
O       3.38      30.46       8.85
O       2.53      29.87      10.61
O       3.88       3.41      12.77
O       4.41       2.52      11.01
O      30.56      31.00      12.78
O      30.02      31.88      11.03
O       3.40      30.58      34.22
O       2.51      30.04      32.46
O      31.01       3.91      34.15
O      31.88       4.46      32.39
O      18.32       2.16      32.58
O      18.37       0.14      32.86
O       0.07      16.03      11.42
O       2.10      16.09      11.19
O      18.33       2.27      10.50
O      18.35       0.26      10.12
O      31.95      18.33      32.03
O       1.00      18.34      31.51
O      27.30       2.45      20.36
O      27.72       0.45      20.37
O       6.65       1.13      20.38
O       7.02      32.05      20.37
O       2.32       7.02      41.81
O       0.31       6.66      41.82
O      31.95      27.32      41.77
O       1.02      27.72      41.77
