34

S       2.63      11.25      17.63
H       2.55      14.28      18.83
H       3.68      15.20      20.83
H       1.01      11.05      21.20
H       0.55      11.05      18.88
H       0.69      12.54      17.94
H       2.57       9.25      19.00
H       4.01       9.42      17.98
H       2.07      12.02      23.22
S       4.44      12.89      24.43
H       4.51       9.87      23.23
H       3.38       8.95      21.23
H       5.00      12.13      18.84
H       6.05      13.09      20.85
H       6.52      13.10      23.18
H       6.37      11.60      24.11
H       4.49      14.90      23.06
H       3.06      14.73      24.07
C       2.42      13.79      19.80
C       3.05      14.32      20.93
C       2.94      13.68      22.17
C       2.15      12.53      22.26
C       1.56      11.98      21.13
C       1.70      12.59      19.88
C       1.22      11.88      18.64
C       3.36       9.95      18.70
C       4.65      10.35      22.26
C       4.02       9.83      21.13
C       4.12      10.47      19.88
C       4.91      11.62      19.79
C       5.50      12.16      20.93
C       5.36      11.56      22.18
C       5.84      12.27      23.41
C       3.71      14.20      23.36
