11

Zn      12.88      10.58       6.81
C      13.15       9.91       3.84
C      14.45      12.85       7.06
O      14.51      11.54       7.17
C      12.81       9.46       9.61
N      12.97       9.16       8.31
O      11.18      11.41       7.37
N      12.89       7.80       8.22
N      12.55       9.79       5.04
N      11.36       9.14       4.83
C      10.11      10.72       7.55
