28

C       4.19       8.30       9.43
C       5.47       9.01       9.58
O       3.60       8.16       8.30
O       3.60       7.82      10.48
O       9.12      12.48       9.16
O       9.67      11.34      11.02
C       7.44       9.71      10.81
O       4.61       4.49      10.95
O       5.67       9.04      14.05
O       7.80       8.69      14.75
C       7.16       7.62      12.72
C       6.87       8.54      13.94
C       6.83      10.88       8.77
C       7.67      10.73       9.88
C       8.90      11.59      10.02
O       4.21       5.96      12.59
C       6.38       8.80      10.67
C       5.99       6.39      10.96
C       4.85       5.59      11.56
H       5.08      10.12       7.77
H       7.05      11.63       8.02
H       8.14       9.62      11.63
H       6.89       5.76      11.07
H       5.82       6.47       9.89
H       8.21       7.74      12.42
H       7.06       6.59      13.11
N       6.23       7.71      11.57
C       5.74      10.02       8.63
