16

C      10.86       8.58       0.67
C      10.94      11.09       0.67
C      10.94      11.09      -0.67
C      10.86       8.58      -0.67
C      10.90       9.84       2.90
C      10.90       9.84       1.42
C      10.90       9.84      -2.90
C      10.90       9.84      -1.42
Cl      10.76       7.16       1.58
Cl      11.04      12.52       1.58
Cl      11.04      12.52      -1.58
Cl      10.76       7.16      -1.58
O       9.80       9.90       3.53
O      12.00       9.78       3.53
O      12.00       9.78      -3.53
O       9.80       9.90      -3.53
