174

C       0.06      30.36      17.33
C       9.23      31.50      16.96
C       0.06      32.76      18.87
C       0.85      31.66      19.30
C       0.83      30.47      18.52
C       1.65      31.67      20.56
C       9.89      29.16      15.15
C       0.02      29.14      16.57
C       9.87      27.87      17.20
C       9.77      26.71      15.04
C       9.79      26.68      16.45
C       9.81      27.97      14.40
C       0.02      15.37      17.05
C       9.78      15.47      15.64
C       9.71      16.73      15.00
C       9.79      17.93      15.74
C       0.02      17.83      17.14
C       0.10      16.58      17.78
C       9.66      19.18      15.14
C       0.50      19.58      14.09
C       0.40      20.84      13.49
C       0.41      22.04      14.25
C       0.40      23.31      13.64
C       0.41      23.37      12.22
C       0.39      22.20      11.42
C       0.40      20.95      12.08
C       0.49      22.31      10.04
C       9.64      21.62       9.16
C       9.76      21.71       7.78
C       9.84      20.53       7.00
C       9.75      22.95       7.10
C       9.83      23.01       5.69
C       0.01      21.83       4.91
C       0.02      20.59       5.60
C       0.50      24.46      14.42
C       9.64      25.56      14.27
C       9.87       6.60      21.79
C       9.09       6.36      22.95
C       9.05       5.09      23.56
C       9.79       4.02      23.02
C       0.68       4.24      21.87
C       0.72       5.52      21.27
C       9.68       2.74      23.55
C       0.45       2.33      24.64
C       0.36       1.04      25.19
C       0.36      -0.12      24.39
C       0.35      -1.42      24.96
C       0.36      -1.53      26.37
C       0.36      -0.39      27.21
C       0.37       0.89      26.60
C       0.44      -0.56      28.60
C       9.69       0.19      29.50
C       9.81       0.01      30.87
C       0.62       0.93      31.66
C       9.13      -1.05      31.52
C       9.17      -1.17      32.93
C       9.89      -0.25      33.72
C       0.67       0.80      33.06
C       0.44      -2.54      24.12
C       9.68      -3.70      24.31
C       9.80      -4.79      23.46
C       9.17      -4.80      22.20
C       0.58      -5.95      23.89
C       0.63      -7.10      23.07
C       9.89      -7.12      21.81
C       9.21      -5.95      21.39
C       0.06      21.89       3.47
C       9.24      20.98       2.67
C       0.05      22.02       0.63
C       0.83      22.96       1.37
C       0.81      22.87       2.79
C       9.84      -0.36      38.00
C       8.61      -0.49      37.28
C       8.65      -0.48      35.86
C       9.87      -0.33      35.15
C       1.14      -0.21      35.92
C       7.29      -0.58      37.96
C       1.60      24.06       0.72
C       0.06      14.10      17.70
C       9.27      13.87      18.91
C       0.04      11.56      19.00
C       0.78      11.72      17.79
C       0.77      12.99      17.16
C       9.83      10.34      19.73
C       8.59       9.77      20.16
C       8.63       8.54      20.86
C       9.85       7.87      21.13
C       1.13       8.49      20.68
C       7.27      10.38      19.84
C       1.50      10.59      17.14
C       9.84     -10.76      19.56
C       8.62     -10.06      19.78
C       8.66      -8.84      20.51
C       9.87      -8.31      21.02
C       1.14      -9.05      20.76
C       7.30     -10.58      19.33
H       1.40      29.67      18.81
H       8.63      31.50      16.13
H       2.48      32.38      20.46
H       2.07      30.70      20.80
H       1.02      31.98      21.39
H       9.84      27.80      18.22
H       0.04      30.05      14.65
H       9.72      25.79      16.95
H       9.79      28.04      13.38
H       9.68      14.63      15.07
H       9.57      16.75      13.98
H       0.22      16.56      18.80
H       0.08      18.68      17.72
H       0.44      20.09      11.51
H       0.46      21.98      15.27
H       0.45      24.29      11.76
H       9.85      19.61       7.46
H       0.09      19.71       5.08
H       9.78      23.93       5.24
H       9.66      23.83       7.62
H       8.97      20.98       9.52
H       1.16      22.95       9.68
H       9.01      19.81      15.54
H       1.15      18.95      13.69
H       8.96      25.57      13.55
H       1.19      24.45      15.14
H       8.53       7.12      23.36
H       8.46       4.95      24.38
H       1.27       5.64      20.42
H       1.20       3.48      21.44
H       0.42       1.72      27.19
H       0.41      -0.03      23.37
H       0.40      -2.46      26.80
H       8.65      -3.98      21.87
H       1.10       1.73      31.22
H       1.17       1.51      33.60
H       8.66      -1.95      33.36
H       8.59      -1.73      30.98
H       8.73      -5.93      20.48
H       1.10      -7.93      23.43
H       1.02      -5.98      24.81
H       9.10       0.94      29.20
H       1.01      -1.30      28.93
H       9.07       2.11      23.08
H       1.04       2.98      25.10
H       9.10      -3.80      25.11
H       1.01      -2.46      23.31
H       1.36      23.54       3.33
H       7.78      -0.53      35.34
H       2.06      -0.11      35.47
H       8.65      20.25       3.09
H       7.18       0.24      38.67
H       7.21      -1.53      38.50
H       6.45      -0.53      37.26
H       2.43      23.64       0.16
H       2.02      24.76       1.45
H       0.95      24.62       0.05
H       1.30      13.12      16.30
H       7.75       8.10      21.14
H       2.05       8.07      20.86
H       8.72      14.60      19.36
H       7.20      10.57      18.77
H       7.17      11.33      20.38
H       6.43       9.75      20.13
H       0.82       9.75      17.00
H       2.34      10.28      17.77
H       1.90      10.86      16.16
H       7.79      -8.34      20.70
H       2.05      -8.73      21.10
H       7.17      33.16      19.68
H       7.24      34.21      18.24
H       6.46      -9.99      19.71
N       9.25      32.62      17.72
N       9.26      21.08       1.32
N       1.08      -0.24      37.27
N       9.29      12.64      19.49
N       1.07       9.67      20.02
N       1.08     -10.21      20.06
