13

O       2.60      16.83       6.90
H      -0.50      13.03       7.62
H       0.68      15.13       7.90
C      -0.23      11.45       5.42
C       0.33      12.76       5.81
C       0.07      13.38       6.98
C       0.75      14.59       7.15
C       1.54      14.89       6.09
C       2.41      16.04       5.94
O       2.99      16.22       4.83
S       1.41      13.69       4.86
O      -0.30      11.13       4.20
O      -0.56      10.70       6.35
