13

H       5.08       6.15      46.00
O       7.19       7.26      49.21
H       4.08       3.95      46.07
C       4.09       2.47      48.43
C       4.70       3.73      47.98
C       4.54       4.33      46.79
C       5.14       5.59      46.73
C       5.81       5.91      47.87
C       6.45       7.21      48.20
O       3.46       1.82      47.55
S       5.68       4.66      49.00
O       6.17       8.18      47.45
O       4.24       2.15      49.63
