13

S       5.79      13.81      41.60
O       3.59      16.75      42.89
C       4.20      16.05      42.07
C       4.79      14.78      42.58
C       4.55      14.21      43.80
O       4.43      16.32      40.86
C       5.89      12.62      42.82
C       5.21      12.95      43.92
C       6.68      11.40      42.57
O       6.69      10.49      43.45
O       7.30      11.27      41.50
H       4.02      14.59      44.46
H       5.17      12.42      44.69
