13

C       0.24       5.78       9.67
C       0.95       4.57       9.82
C       0.73       3.98      11.02
C       1.26       2.65      11.46
O      -1.57       8.02       9.96
O      -2.03       7.35      12.00
O       1.38       2.39      12.64
O       1.49       1.87      10.49
H       0.30       6.31       8.91
H       1.51       4.22       9.17
S      -0.35       4.89      11.98
C      -1.42       7.20      10.92
C      -0.52       6.06      10.75
