13

H       9.70       5.79      31.78
H      10.85       3.62      31.55
S      11.48       5.01      34.63
C       9.89       7.25      34.16
C      10.48       5.97      33.66
C      10.23       5.41      32.44
C      10.89       4.15      32.31
C      11.58       3.81      33.42
C      12.36       2.59      33.67
O       9.27       7.95      33.35
O      10.12       7.52      35.37
O      12.37       1.68      32.78
O      12.99       2.47      34.74
