13

O       4.95       2.09      15.82
C       4.75       2.35      14.60
C       5.29       3.63      14.08
C       5.16       4.14      12.83
C       5.79       5.40      12.72
O       4.13       1.64      13.78
C       6.33       5.81      13.87
C       6.96       7.15      14.15
O       7.56       7.32      15.21
O       6.79       8.00      13.25
S       6.16       4.67      15.12
H       4.71       3.72      12.14
H       5.82       5.89      11.93
