13

H       6.19      13.03      33.04
C       5.36      12.76      31.23
C       5.61      13.38      32.40
C       4.93      14.59      32.56
C       5.91      11.45      30.83
S       4.28      13.69      30.27
C       4.15      14.89      31.50
H       5.01      15.13      33.32
C       3.28      16.04      31.35
O       2.70      16.22      30.24
O       5.99      11.13      29.61
O       6.25      10.70      31.77
O       3.08      16.83      32.31
