13

S       5.09       5.05      26.20
O       6.16       7.71      27.08
O       7.16       8.15      25.14
O       3.74       2.44      26.06
O       4.45       1.86      24.05
C       6.49       7.44      25.89
C       6.04       6.15      25.32
C       6.31       5.68      24.09
C       5.74       4.41      23.84
C       5.08       3.95      24.91
C       4.37       2.66      25.02
H       6.82       6.14      23.47
H       5.81       3.96      23.03
