13

H       0.97       3.72      37.55
S      -0.47       4.67      40.53
H      -0.14       5.89      37.34
O       0.74       2.09      41.23
O       1.56       1.64      39.19
O      -1.87       7.32      40.63
C       0.93       2.35      40.01
C       0.39       3.63      39.50
C       0.53       4.14      38.24
C      -0.10       5.40      38.13
C      -0.64       5.81      39.28
C      -1.27       7.15      39.57
O      -1.10       8.00      38.66
