13

C       5.20      15.99       8.09
C       5.73      14.68       8.59
C       5.51      14.12       9.81
C       6.18      12.91       9.95
C       6.88      12.55       8.83
C       7.68      11.33       8.61
O       5.45      16.30       6.90
O       4.57      16.68       8.94
H       4.97      14.50      10.47
H       6.15      12.39      10.72
O       8.24      11.20       7.50
O       7.80      10.50       9.53
S       6.72      13.72       7.61
