13

C       1.59       2.47      23.02
S       0.01       4.66      23.59
C       1.14       4.33      21.38
C       0.99       3.73      22.57
C       0.54       5.59      21.32
C      -0.13       5.91      22.45
H       1.60       3.95      20.66
O       1.45       2.15      24.22
O       2.22       1.82      22.14
C      -0.77       7.21      22.78
H       0.60       6.15      20.58
O      -1.50       7.26      23.80
O      -0.48       8.18      22.04
