13

S      11.36      13.47      27.24
O       9.92      10.95      26.61
O       9.14      10.62      28.68
O      12.87      16.06      27.02
O      11.85      16.98      28.79
C       9.78      11.27      27.81
C      10.38      12.53      28.26
C      10.23      13.13      29.45
C      10.82      14.39      29.50
C      11.50      14.71      28.37
C      12.14      16.01      28.04
H       9.77      12.75      30.16
H      10.77      14.95      30.24
