13

C      11.02       7.14       5.59
H      12.42       6.02       3.45
C      12.38       5.49       4.21
C      13.03       4.24       4.30
C      11.71       5.84       5.31
H      13.55       3.87       3.63
C      12.80       3.67       5.50
C      13.37       2.40       6.06
S      11.82       4.63       6.52
O      11.12       8.00       4.69
O      10.44       7.27       6.67
O      14.01       1.69       5.21
O      13.23       2.15       7.26
