13

S       5.24       4.63      31.93
C       4.25       3.67      30.91
C       3.68       2.40      31.48
O       5.93       8.00      30.10
O       6.61       7.27      32.09
O       3.04       1.69      30.62
O       3.83       2.15      32.67
C       6.04       7.14      31.00
C       5.35       5.84      30.72
C       4.67       5.49      29.62
C       4.02       4.24      29.72
H       4.63       6.02      28.86
H       3.50       3.87      29.04
