13

C       0.23       2.64      45.40
C      -0.33       3.96      45.01
O       0.56       1.90      44.47
C      -0.07       4.58      43.84
O       0.30       2.33      46.62
C      -0.75       5.79      43.68
C      -1.54       6.09      44.74
C      -2.41       7.24      44.89
O      -2.60       8.03      43.92
O      -2.99       7.42      46.00
H       0.50       4.23      43.20
H      -0.68       6.33      42.92
S      -1.41       4.89      45.96
