16

C       5.09      13.66       0.75
C       3.87      13.06       1.12
C       2.67      13.55       0.61
C       2.68      14.63      -0.29
C       3.90      15.22      -0.67
C       5.10      14.75      -0.14
C       6.36      13.14       1.31
C       1.39      15.21      -0.76
O       7.31      13.96       1.54
O       6.44      11.88       1.54
H       3.89      12.22       1.82
H       1.72      13.12       0.92
H       3.88      16.06      -1.36
H       6.04      15.21      -0.41
O       0.32      14.54      -0.53
O       1.40      16.35      -1.33
