16

O      12.74      11.06      27.75
O      12.63       8.84      27.79
O       9.69      11.23      21.46
H      12.64      11.83      25.27
O       8.79       9.20      21.87
H      11.42      11.92      23.09
H       9.29       8.33      24.14
H      10.59       8.17      26.27
C      11.92      11.06      25.01
C      11.70       9.99      25.90
C      10.76       8.99      25.58
C      11.23      11.11      23.80
C      12.41       9.96      27.20
C       9.53      10.19      22.19
C      10.04       9.08      24.39
C      10.28      10.12      23.49
