16

C      14.35      11.31      20.46
C      13.15      11.89      20.05
C      13.18      13.12      19.36
C      14.40      13.74      19.08
C      15.59      13.17      19.52
C      15.57      11.95      20.20
C      11.90      13.82      19.02
C      16.86      11.33      20.66
H      14.35      10.36      21.00
H      12.20      11.43      20.27
H      14.40      14.69      18.54
H      16.54      13.66      19.33
O      11.98      15.00      18.54
O      10.80      13.23      19.28
O      16.90      10.06      20.80
O      17.85      12.10      20.86
