378

C      -2.09      18.11      12.21
C      -3.33      18.71      11.90
C      -4.49      18.38      12.62
C      -4.46      17.40      13.64
C      -3.21      16.82      13.97
C      -2.04      17.17      13.27
C      -6.02      18.50      15.40
C      -5.08      18.80      16.42
C      -5.16      20.01      17.14
C      -6.14      20.97      16.83
C      -7.04      20.70      15.78
C      -6.98      19.48      15.07
C      -7.16      16.75      13.57
C      -5.73      15.73      15.47
C      -6.12      15.72      16.83
C      -6.11      14.53      17.58
C      -5.72      13.31      16.98
C      -5.35      13.31      15.62
C      -5.37      14.50      14.87
C      -7.05      16.37      12.21
C      -8.18      15.99      11.47
C      -9.45      15.95      12.06
C      -9.58      16.30      13.43
C      -8.45      16.67      14.17
C      18.24      -3.73      12.04
C      18.62      -3.73      13.40
C      18.57      -2.55      14.16
C      18.19      -1.32      13.57
C      17.78      -1.33      12.22
C      17.80      -2.52      11.46
C      16.76      -0.30      15.48
C      15.47      -0.35      14.89
C      14.34      -0.70      15.65
C      14.47      -1.06      17.01
C      15.76      -1.07      17.58
C      16.89      -0.70      16.83
C      19.46       0.35      15.40
C      17.91       1.44      13.64
C      16.94       2.43      13.96
C      16.89       3.65      13.26
C      17.82       3.93      12.24
C      18.81       2.97      11.93
C      18.87       1.75      12.64
C      20.71      -0.24      15.09
C      21.88       0.11      15.79
C      21.84       1.08      16.81
C      20.60       1.70      17.11
C      19.44       1.35      16.41
C      21.91      14.29       9.24
C      20.67      14.26       9.92
C      19.52      13.80       9.27
C      19.54      13.40       7.91
C      20.79      13.41       7.24
C      21.96      13.84       7.90
C      17.98      11.33       7.99
C      18.92      10.29       7.74
C      18.84       9.07       8.42
C      17.85       8.86       9.41
C      16.95       9.91       9.70
C      17.02      11.12       9.00
C      16.84      13.79       7.38
C      18.27      12.65       5.56
C      17.88      11.48       4.86
C      17.89      11.43       3.46
C      18.28      12.55       2.70
C      18.66      13.73       3.38
C      18.63      13.78       4.78
C      16.96      15.16       7.73
C      15.83      15.99       7.77
C      14.55      15.50       7.44
C      14.43      14.14       7.07
C      15.55      13.31       7.02
C      -5.75       8.38      19.81
C      -5.37       7.20      19.13
C      -5.43       5.96      19.77
C      -5.80       5.85      21.13
C      -6.21       7.03      21.80
C      -6.19       8.28      21.15
C      -7.24       3.69      21.06
C      -8.53       4.23      21.31
C      -9.66       3.75      20.63
C      -9.53       2.75      19.64
C      -8.24       2.25      19.34
C      -7.11       2.72      20.04
C      -4.54       3.43      21.66
C      -6.09       4.41      23.49
C      -7.06       3.64      24.18
C      -7.11       3.64      25.59
C      -6.18       4.38      26.34
C      -5.19       5.13      25.66
C      -5.14       5.12      24.26
C      -3.29       4.00      21.30
C      -2.12       3.21      21.26
C      -2.17       1.84      21.59
C      -3.40       1.27      21.97
C      -4.57       2.06      22.02
C       9.91      18.78       7.42
C       8.67      18.21       7.05
C       7.51      19.00       6.98
C       7.54      20.37       7.32
C       8.79      20.95       7.65
C       9.96      20.16       7.71
C       5.98      21.35       5.49
C       6.92      22.08       4.71
C       6.84      22.10       3.31
C       5.86      21.35       2.63
C       4.96      20.57       3.39
C       5.02      20.57       4.80
C       4.84      20.64       7.92
C       6.28      22.79       7.85
C       5.88      23.98       7.18
C       5.90      25.22       7.84
C       6.29      25.31       9.19
C       6.66      24.13       9.87
C       6.64      22.89       9.21
C       4.96      19.65       8.92
C       3.83      19.20       9.63
C       2.55      19.73       9.36
C       2.43      20.74       8.38
C       3.56      21.20       7.68
C       6.24      -4.41      26.41
C       6.62      -3.23      25.73
C       6.57      -3.17      24.33
C       6.19      -4.29      23.56
C       5.78      -5.46      24.25
C       5.81      -5.52      25.65
C       4.76      -3.15      21.73
C       3.47      -3.63      22.07
C       2.34      -2.80      21.99
C       2.47      -1.44      21.62
C       3.76      -0.94      21.33
C       4.89      -1.78      21.39
C       7.46      -3.54      21.20
C       5.91      -5.61      21.13
C       4.93      -5.83      20.12
C       4.88      -7.04      19.42
C       5.80      -8.07      19.68
C       6.79      -7.85      20.66
C       6.86      -6.64      21.36
C       8.71      -3.52      21.87
C       9.87      -3.09      21.21
C       9.83      -2.69      19.85
C       8.60      -2.73      19.17
C       7.43      -3.17      19.83
C      -6.19      22.20      17.53
C      -6.26      22.22      18.95
C       5.70     -10.52      19.64
C       5.77      -9.29      18.95
C       5.85      -9.30      17.54
C      -6.12      23.43      16.84
C      13.33      -1.46      17.75
C      12.19      -0.62      17.82
C      11.05      -1.03      18.53
C      11.01      -2.28      19.18
C      12.15      -3.13      19.10
C      13.30      -2.71      18.41
C      18.24      -4.93      11.29
C      19.41      -5.73      11.22
C       7.45      27.01      10.52
C       6.28      26.56       9.87
C       5.10      27.35       9.95
C      17.07      -5.38      10.64
C      -0.92      18.48      11.51
C      -0.87      18.42      10.10
C       0.28      18.82       9.40
C       1.41      19.30      10.09
C       1.37      19.37      11.51
C       0.22      18.95      12.21
C      17.80       7.63      10.12
C      17.73       6.40       9.43
C      17.72       5.19      10.14
C      17.80       5.17      11.55
C      17.88       6.40      12.25
C      17.87       7.62      11.53
C     -10.67       2.29      18.92
C     -11.81       1.82      19.61
C      23.06       1.41      18.91
C      23.02       1.47      17.50
C      24.15       1.96      16.80
C     -10.70       2.35      17.51
C      -5.74       9.63      19.14
C      -4.57      10.09      18.49
C      -4.57      11.31      17.79
C      -5.74      12.10      17.72
C      -6.92      11.64      18.36
C      -6.90      10.43      19.08
C      23.09      14.71       9.90
C      23.13      15.97      10.56
C     -11.73      16.37      11.25
C     -10.59      15.53      11.33
C     -10.63      14.27      10.68
C      24.23      13.88       9.97
C       5.81      21.34       1.22
C       5.74      22.56       0.49
C      -6.28       5.57      28.48
C      -6.21       4.36      27.76
C      -6.12       3.14      28.48
C       5.87      20.13       0.50
C       1.33      -0.60      21.58
C       0.20      -0.95      20.83
C      -0.95      -0.14      20.82
C      -0.99       1.05      21.59
C       0.15       1.41      22.36
C       1.30       0.60      22.34
C       6.25      -4.46      27.83
C       7.42      -4.12      28.55
C      19.44      12.85       0.56
C      18.27      12.52       1.28
C      17.09      12.19       0.56
C       5.09      -4.80      28.55
C      11.09      17.99       7.45
C      11.13      16.80       8.21
C      12.28      15.99       8.21
C      13.41      16.35       7.45
C      13.37      17.54       6.68
C      12.22      18.35       6.70
H      -6.40      14.56      18.56
H      -6.46      16.56      17.30
H      -5.09      12.44      15.15
H      -5.12      14.44      13.88
H      -6.14      16.33      11.75
H      -8.05      15.73      10.49
H     -10.48      16.25      13.90
H      -8.58      16.89      15.17
H      -7.63      19.36      14.30
H      -7.76      21.39      15.52
H      -4.46      20.19      17.87
H      -4.33      18.15      16.66
H      -3.11      16.16      14.75
H      -5.36      18.87      12.38
H      -3.39      19.43      11.17
H      -1.16      16.73      13.53
H      16.17       4.33      13.51
H      16.28       2.29      14.72
H      19.52       3.15      11.22
H      19.62       1.10      12.41
H      20.81      -0.92      14.33
H      22.76      -0.34      15.54
H      20.54       2.43      17.83
H      18.57       1.84      16.64
H      17.80      -0.75      17.29
H      15.89      -1.34      18.56
H      13.43      -0.73      15.18
H      15.33      -0.13      13.90
H      17.43      -0.49      11.76
H      18.83      -2.61      15.15
H      18.90      -4.60      13.86
H      17.50      -2.49      10.48
H      17.60      10.56       2.99
H      17.54      10.65       5.36
H      18.91      14.57       2.86
H      18.88      14.67       5.23
H      17.86      15.58       7.94
H      15.95      16.98       8.04
H      13.52      13.76       6.79
H      15.42      12.34       6.71
H      16.37      11.86       9.28
H      16.24       9.79      10.43
H      19.53       8.34       8.21
H      19.67      10.41       7.05
H      20.89      13.06       6.29
H      18.65      13.76       9.82
H      20.61      14.53      10.90
H      22.84      13.84       7.38
H      -7.83       3.08      26.05
H      -7.73       3.05      23.68
H      -4.48       5.65      26.18
H      -4.38       5.65      23.81
H      -3.19       4.99      21.11
H      -1.24       3.65      21.00
H      -3.46       0.29      22.25
H      -5.43       1.61      22.33
H      -6.20       2.35      19.76
H      -8.11       1.54      18.62
H     -10.57       4.16      20.83
H      -8.67       4.98      21.99
H      -6.57       7.01      22.76
H      -5.17       5.13      19.23
H      -5.09       7.24      18.14
H      -6.48       9.11      21.66
H       5.61      26.05       7.32
H       5.54      23.96       6.22
H       6.92      24.16      10.86
H       6.88      22.06       9.76
H       5.86      19.26       9.19
H       3.95      18.47      10.35
H       1.52      21.17       8.19
H       3.42      21.95       7.00
H       4.37      19.96       5.30
H       4.24      20.00       2.93
H       7.54      22.64       2.79
H       7.67      22.61       5.16
H       8.89      21.95       7.83
H       6.65      18.54       6.68
H       8.61      17.22       6.80
H      10.84      20.61       7.96
H       4.15      -7.16      18.70
H       4.27      -5.10      19.86
H       7.50      -8.57      20.86
H       7.61      -6.51      22.04
H       8.80      -3.84      22.83
H      10.76      -3.08      21.72
H       8.54      -2.48      18.18
H       6.57      -3.21      19.28
H       5.80      -1.35      21.21
H       3.89       0.05      21.08
H       1.43      -3.18      22.25
H       3.33      -4.60      22.37
H       5.42      -6.28      23.75
H       6.83      -2.28      23.89
H       6.90      -2.40      26.26
H       5.51      -6.38      26.11
H       5.63     -10.54      20.67
H      -6.32      21.35      19.48
H      -6.04      23.44      15.82
H       6.92      -7.90      16.85
H      10.25      -0.39      18.57
H      12.19       0.30      17.37
H      14.10      -3.34      18.35
H      11.69      -4.97      19.04
H       8.32      26.47      10.48
H      20.27      -5.43      11.68
H      16.21      -4.84      10.70
H       3.53      26.30      10.01
H       0.28      18.75       8.38
H      -1.68      18.07       9.57
H       0.20      19.03      13.23
H       2.34      20.85      12.19
H      17.66       4.31       9.61
H      17.67       6.38       8.41
H      17.95       8.50      12.05
H      18.95       6.29      13.80
H      22.25       1.06      19.44
H     -11.81       1.76      20.64
H      -9.91       2.72      16.99
H      23.69       2.93      15.24
H      -3.70      11.61      17.34
H      -3.71       9.54      18.53
H      -7.77      10.11      19.52
H      -8.49      12.12      17.43
H     -11.73      17.29      11.71
H      22.32      16.60      10.52
H      24.21      12.95       9.53
H      -9.66      12.94      11.62
H      -6.35       6.47      27.99
H       5.68      23.45       0.99
H       5.96      19.24       1.00
H      -5.06       1.85      27.61
H      -1.75      -0.42      20.25
H       0.19      -1.81      20.26
H       2.10       0.86      22.92
H      -0.31       2.27      23.98
H      20.30      13.08       1.05
H       8.29      -3.88      28.06
H       4.22      -5.02      28.05
H      15.52      12.77       1.44
H      12.28      15.14       8.78
H      10.32      16.51       8.78
H      12.21      19.19       6.12
H      14.34      17.39       5.06
O       5.97      -8.16      16.81
O      12.16      -4.37      19.66
O       3.93      26.95       9.38
O       2.41      19.87      12.24
O      18.00       6.46      13.60
O      24.16       2.09      15.45
O      -8.09      12.33      18.30
O      -9.59      13.39      10.75
O      -6.01       1.94      27.85
O       0.16       2.52      23.15
O      15.91      11.90       1.19
O      14.41      17.92       5.89
Si      -5.84      17.10      14.52
Si      18.08       0.04      14.52
Si      18.16      12.79       7.21
Si      -5.92       4.35      21.83
Si       6.16      21.29       7.14
Si       6.08      -4.15      21.90
