150

C       0.36      21.26      13.37
C       0.36      -7.30      13.64
C       0.25      -6.36      12.57
C       0.25      23.11      11.25
C       0.28      21.74      10.94
C       0.38      20.81      12.02
C       0.55      -6.89      14.97
C       0.59      19.43      11.81
C       0.36      20.32      14.46
C       0.38      20.78      15.82
C       0.28      19.84      16.90
C       0.25      18.47      16.58
C       0.25      17.98      15.26
C       0.36      18.92      14.20
C       0.58      -7.81      16.02
C       0.56      18.51      12.86
C       0.13      21.43       9.56
C       0.06      16.59      15.06
C       0.12      -9.82      18.27
C       0.06      -4.97      12.77
C       0.36      12.59       0.80
C       0.35      -2.86      25.41
C       0.24      -4.26      25.13
C       0.25       9.83       0.26
C       0.28      10.24       1.61
C       0.37      11.64       1.87
C       0.54      -1.91      24.39
C       0.58      12.16       3.17
C       0.35      14.01       1.07
C       0.37      14.95       0.00
C       0.27      16.35       0.27
C       0.24      16.77       1.62
C       0.24      15.87       2.71
C       0.35      14.48       2.42
C       0.58      -0.54      24.66
C       0.54      13.52       3.45
C       0.13       9.20       2.56
C       0.05      16.39       4.01
C       0.12       2.41      25.27
C       0.05      -4.78      23.82
C       0.35       6.04      14.60
C       0.35       5.11      15.68
C       0.24       5.56      17.03
C       0.24       6.95      17.26
C       0.26       7.91      16.23
C       0.36       7.44      14.88
C       0.54       3.75      15.36
C       0.57       8.31      13.79
C       0.35       5.57      13.24
C       0.37       4.17      12.95
C       0.27       3.70      11.60
C       0.24       4.66      10.57
C       0.24       6.05      10.81
C       0.34       6.50      12.15
C       0.58       3.30      14.05
C       0.53       7.87      12.47
C       0.11       9.26      16.65
C       0.05       6.92       9.70
C       0.12       2.36      11.18
C       0.05       4.70      18.13
C       9.63      18.28       7.80
C       9.92      18.33       5.45
C       9.99      20.37       6.66
C       9.82      19.67       7.87
C       9.63       9.25       6.17
C       9.93       7.19       7.30
C      10.00       7.22       4.93
C       9.82       8.62       4.93
C       9.63      12.36      14.80
C       9.93      14.37      16.02
C       9.99      12.31      17.18
C       9.81      11.60      15.97
C       9.62      -6.66      20.04
C       9.92      -6.72      22.38
C       9.99      -8.76      21.18
C       9.81      -8.06      19.96
C       9.63       2.36      21.66
C       9.92       4.42      20.53
C       9.99       4.39      22.90
C       9.81       2.99      22.90
C       9.63      -0.75      13.03
C       9.93      -2.75      11.81
C      10.00      -0.69      10.65
C       9.81       0.01      11.86
H       0.16      23.78      10.48
H       0.15      17.80      17.35
H       0.82      -7.43      16.93
H       0.72      -5.92      15.22
H       0.74      17.54      12.62
H       0.83      19.04      10.90
H       0.18      22.19       8.86
H      10.00      16.22      14.12
H       0.17     -10.57      18.97
H      10.00      -4.60      13.71
H       0.15       8.83       0.06
H       0.14      17.77       1.81
H       0.82       0.05      23.87
H       0.72      -2.19      23.42
H       0.72      13.80       4.41
H       0.82      11.56       3.96
H       0.18       8.23       2.25
H       9.99      15.76       4.80
H       0.17       3.39      25.58
H       9.99      -4.15      23.03
H       0.14       7.29      18.23
H       0.15       4.33       9.60
H       0.82       2.32      13.92
H       0.72       3.05      16.08
H       0.71       8.56      11.75
H       0.81       9.29      13.91
H       0.16       9.48      17.65
H       9.99       7.92       9.85
H       0.17       2.13      10.18
H       9.99       3.70      17.98
H       9.52      17.71       8.65
H       0.06      21.38       6.64
H       9.51      10.27       6.24
H       0.07       6.70       4.07
H       9.51      11.91      13.89
H       0.06      11.82      18.06
H       9.51      -6.10      19.19
H       0.06      -9.76      21.19
H       9.51       1.34      21.59
H       0.06       4.91      23.76
H       9.51      -0.30      13.94
H       0.06      -0.20       9.77
N       9.71      17.65       6.60
N      10.05      19.68       5.49
N       0.02      17.72       4.27
N       9.94      20.20       9.10
N       9.71       8.54       7.31
N      10.06       6.55       6.11
N       0.02       6.48       8.42
N       9.94       9.42       3.85
N       9.71      13.71      14.85
N      10.06      13.66      17.17
N       0.03      15.70      16.08
N       9.93      10.27      15.81
N       9.71      -6.04      21.23
N      10.05      -8.07      22.34
N       0.02      -6.10      23.56
N       9.93      -8.59      18.73
N       9.71       3.08      20.52
N      10.05       5.06      21.72
N       0.02       5.13      19.41
N       9.94       2.19      23.98
N       9.71      -2.10      12.98
N      10.06      -2.05      10.66
N       0.03      -4.08      11.75
N       9.93       1.34      12.02
