11

Cu       9.40      -0.13       9.04
N       8.72       0.48      10.82
O      11.20       0.41       9.61
C       6.99      -0.29       8.05
C       9.15       1.56      11.46
C       7.79      -0.14      11.65
N      10.09      -0.78       7.27
C      11.64       1.60       9.27
C       9.52      -1.69       6.49
C      11.21      -0.31       6.60
O       7.68      -1.14       8.76
