11

O       7.65      10.23       4.22
Cu       7.30      11.18       2.52
C       6.69      13.32       4.76
O       7.13      12.19       0.84
C       7.16       8.28       2.18
C       7.04       9.14       0.18
C       8.88      10.53       4.55
C       5.85      12.19       0.60
N       7.14      12.96       3.49
N       7.30       9.42       1.51
C       7.66      14.05       2.94
