801

C       9.44       8.91      32.38
C       8.05       9.11      32.41
C       7.49      10.05      33.29
C       8.30      10.81      34.16
C       9.71      10.66      34.06
C      10.27       9.71      33.18
C       6.82      12.94      34.16
C       7.64      13.70      33.30
C       7.08      14.65      32.43
C       5.69      14.84      32.39
C       4.85      14.03      33.19
C       5.41      13.09      34.07
C       6.53      11.07       0.88
C       8.59      12.66       0.88
C       8.53      14.07       1.08
C       9.25      14.69       2.11
C      10.02      13.92       3.00
C      10.08      12.52       2.83
C       9.37      11.90       1.79
C       6.59       9.66       1.06
C       5.88       9.03       2.10
C       5.11       9.80       2.99
C       5.04      11.20       2.82
C       5.75      11.82       1.78
C      17.13      11.75       8.81
C      18.00      12.85       8.85
C      -7.01      12.86       9.72
C      -6.76      11.77      10.58
C      18.51      10.63      10.48
C      17.41      10.62       9.61
C      -4.17      11.99      10.58
C      -3.93      10.91       9.69
C      -2.84      10.94       8.81
C      -1.98      12.05       8.78
C      -2.24      13.15       9.61
C      -3.33      13.13      10.50
C      -5.64      13.15      12.67
C      -5.29      10.57      12.65
C      -4.05       9.91      12.83
C      -3.86       8.97      13.86
C      -4.91       8.70      14.76
C      19.95       9.35      14.60
C      19.77      10.28      13.56
C      -6.88      13.82      12.86
C      -7.06      14.75      13.89
C      -6.01      15.01      14.79
C      -4.77      14.36      14.62
C      -4.59      13.44      13.58
C      15.73       3.69      20.59
C      16.25       2.38      20.62
C      15.72       1.43      21.49
C      14.65       1.75      22.37
C      14.08       3.05      22.27
C      14.62       4.01      21.40
C       0.50      22.01      22.36
C      -0.56      22.34      21.48
C      -1.09      21.39      20.60
C      -0.57      20.08      20.58
C       0.53      19.75      21.40
C       1.06      20.71      22.28
C      15.30       0.09      24.45
C      12.89       1.07      24.44
C      11.69       0.32      24.62
C      10.79       0.63      25.65
C      11.08       1.68      26.55
C      12.26       2.43      26.39
C      13.16       2.12      25.35
C      16.50       0.83      24.63
C      17.40       0.52      25.66
C       4.06      22.08      26.55
C       2.87      21.33      26.39
C       1.98      21.64      25.35
C       9.60       5.68      30.78
C       9.27       5.32      28.42
C       9.35       3.92      28.61
C       9.63       4.28      30.97
C       8.76       3.03      32.76
C      10.32       6.39      26.62
C       9.42       3.00      27.53
C       9.69       6.63      31.82
C      14.25      13.23       7.22
C      14.09      13.69       4.86
C      12.84      14.31       5.05
C      13.02      13.90       7.41
C      12.37      15.27       9.20
C      14.49      12.24       3.06
C      11.99      14.70       3.98
C      15.03      12.68       8.26
C      18.45       5.43      18.99
C      18.93       5.31      16.63
C      20.10       6.08      16.82
C      19.65       6.16      19.18
C      21.16       6.03      20.97
C      17.48       5.69      14.83
C      20.87       6.60      15.74
C      17.57       5.05      20.03
C       5.53      18.07      30.78
C       5.87      18.42      28.43
C       5.78      19.82      28.61
C       5.50      19.47      30.98
C       6.37      20.72      32.76
C       4.81      17.35      26.63
C       5.71      20.74      27.54
C       5.44      17.12      31.83
C       0.91      10.57       7.19
C       1.05      10.07       4.84
C       2.30       9.45       5.04
C       2.13       9.90       7.40
C       2.76       8.55       9.20
C       0.65      11.49       3.02
C       3.14       9.03       3.97
C       0.13      11.16       8.22
C      -3.29      18.33      18.99
C      -3.79      18.43      16.64
C      -4.96      17.65      16.84
C      -4.49      17.60      19.20
C      -5.98      17.74      21.01
C      -2.35      18.05      14.83
C      -5.72      17.12      15.78
C      -2.40      18.71      20.03
C       9.44       8.91      21.38
C       8.05       9.11      21.41
C       7.49      10.05      22.29
C       8.30      10.81      23.16
C       9.71      10.66      23.06
C      10.27       9.71      22.18
C       6.82      12.94      23.16
C       7.64      13.70      22.30
C       7.08      14.65      21.43
C       5.69      14.84      21.39
C       4.85      14.03      22.19
C       5.41      13.09      23.07
C       6.53      11.07      25.24
C       8.59      12.66      25.24
C       8.53      14.07      25.44
C       9.25      14.69      26.47
C      10.02      13.92      27.36
C      10.08      12.52      27.19
C       9.37      11.90      26.15
C       6.59       9.66      25.42
C       5.88       9.03      26.46
C       5.11       9.80      27.35
C       5.04      11.20      27.18
C       5.75      11.82      26.14
C      17.13      11.75      33.17
C      18.00      12.85      33.21
C      -7.01      12.86      34.08
C      -6.76      11.77      34.94
C      18.51      10.63      34.84
C      17.41      10.62      33.97
C      -4.17      11.99      34.94
C      -3.93      10.91      34.05
C      -2.84      10.94      33.17
C      -1.98      12.05      33.14
C      -2.24      13.15      33.97
C      -3.33      13.13      34.86
C      -5.64      13.15       1.67
C      -5.29      10.57       1.65
C      -4.05       9.91       1.83
C      -3.86       8.97       2.86
C      -4.91       8.70       3.76
C      19.95       9.35       3.60
C      19.77      10.28       2.56
C      -6.88      13.82       1.86
C      -7.06      14.75       2.89
C      -6.01      15.01       3.79
C      -4.77      14.36       3.62
C      -4.59      13.44       2.58
C      15.73       3.69       9.59
C      16.25       2.38       9.62
C      15.72       1.43      10.49
C      14.65       1.75      11.37
C      14.08       3.05      11.27
C      14.62       4.01      10.40
C       0.50      22.01      11.36
C      -0.56      22.34      10.48
C      -1.09      21.39       9.60
C      -0.57      20.08       9.58
C       0.53      19.75      10.40
C       1.06      20.71      11.28
C      15.30       0.09      13.45
C      12.89       1.07      13.44
C      11.69       0.32      13.62
C      10.79       0.63      14.65
C      11.08       1.68      15.55
C      12.26       2.43      15.39
C      13.16       2.12      14.35
C      16.50       0.83      13.63
C      17.40       0.52      14.66
C       4.06      22.08      15.55
C       2.87      21.33      15.39
C       1.98      21.64      14.35
C       9.60       5.68      19.78
C       9.27       5.32      17.42
C       9.35       3.92      17.61
C       9.63       4.28      19.97
C       8.76       3.03      21.76
C      10.32       6.39      15.62
C       9.42       3.00      16.53
C       9.69       6.63      20.82
C      14.25      13.23      31.57
C      14.09      13.69      29.22
C      12.84      14.31      29.41
C      13.02      13.90      31.77
C      12.37      15.27      33.56
C      14.49      12.24      27.42
C      11.99      14.70      28.34
C      15.03      12.68      32.61
C      18.45       5.43       7.99
C      18.93       5.31       5.63
C      20.10       6.08       5.82
C      19.65       6.16       8.18
C      21.16       6.03       9.97
C      17.48       5.69       3.83
C      20.87       6.60       4.74
C      17.57       5.05       9.03
C       5.53      18.07      19.78
C       5.87      18.42      17.43
C       5.78      19.82      17.61
C       5.50      19.47      19.98
C       6.37      20.72      21.76
C       4.81      17.35      15.63
C       5.71      20.74      16.54
C       5.44      17.12      20.83
C       0.91      10.57      31.55
C       1.05      10.07      29.20
C       2.30       9.45      29.40
C       2.13       9.90      31.76
C       2.76       8.55      33.56
C       0.65      11.49      27.38
C       3.14       9.03      28.33
C       0.13      11.16      32.58
C      -3.29      18.33       7.99
C      -3.79      18.43       5.64
C      -4.96      17.65       5.84
C      -4.49      17.60       8.20
C      -5.98      17.74      10.01
C      -2.35      18.05       3.83
C      -5.72      17.12       4.78
C      -2.40      18.71       9.03
C       9.44       8.91      10.38
C       8.05       9.11      10.41
C       7.49      10.05      11.29
C       8.30      10.81      12.16
C       9.71      10.66      12.06
C      10.27       9.71      11.18
C       6.82      12.94      12.16
C       7.64      13.70      11.30
C       7.08      14.65      10.43
C       5.69      14.84      10.39
C       4.85      14.03      11.19
C       5.41      13.09      12.07
C       6.53      11.07      14.24
C       8.59      12.66      14.24
C       8.53      14.07      14.44
C       9.25      14.69      15.47
C      10.02      13.92      16.36
C      10.08      12.52      16.19
C       9.37      11.90      15.15
C       6.59       9.66      14.42
C       5.88       9.03      15.46
C       5.11       9.80      16.35
C       5.04      11.20      16.18
C       5.75      11.82      15.14
C      17.13      11.75      22.17
C      18.00      12.85      22.21
C      -7.01      12.86      23.08
C      -6.76      11.77      23.94
C      18.51      10.63      23.84
C      17.41      10.62      22.97
C      -4.17      11.99      23.94
C      -3.93      10.91      23.05
C      -2.84      10.94      22.17
C      -1.98      12.05      22.14
C      -2.24      13.15      22.97
C      -3.33      13.13      23.86
C      -5.64      13.15      26.03
C      -5.29      10.57      26.01
C      -4.05       9.91      26.19
C      -3.86       8.97      27.22
C      -4.91       8.70      28.12
C      19.95       9.35      27.95
C      19.77      10.28      26.92
C      -6.88      13.82      26.21
C      -7.06      14.75      27.25
C      -6.01      15.01      28.15
C      -4.77      14.36      27.98
C      -4.59      13.44      26.94
C      15.73       3.69      33.95
C      16.25       2.38      33.98
C      15.72       1.43      34.85
C      14.65       1.75       0.37
C      14.08       3.05       0.27
C      14.62       4.01      34.76
C       0.50      22.01       0.36
C      -0.56      22.34      34.84
C      -1.09      21.39      33.96
C      -0.57      20.08      33.94
C       0.53      19.75      34.75
C       1.06      20.71       0.28
C      15.30       0.09       2.45
C      12.89       1.07       2.44
C      11.69       0.32       2.62
C      10.79       0.63       3.65
C      11.08       1.68       4.55
C      12.26       2.43       4.39
C      13.16       2.12       3.35
C      16.50       0.83       2.63
C      17.40       0.52       3.66
C       4.06      22.08       4.55
C       2.87      21.33       4.39
C       1.98      21.64       3.35
C       9.60       5.68       8.78
C       9.27       5.32       6.42
C       9.35       3.92       6.61
C       9.63       4.28       8.97
C       8.76       3.03      10.76
C      10.32       6.39       4.62
C       9.42       3.00       5.53
C       9.69       6.63       9.82
C      14.25      13.23      20.57
C      14.09      13.69      18.22
C      12.84      14.31      18.41
C      13.02      13.90      20.77
C      12.37      15.27      22.56
C      14.49      12.24      16.42
C      11.99      14.70      17.34
C      15.03      12.68      21.61
C      18.45       5.43      32.35
C      18.93       5.31      29.99
C      20.10       6.08      30.18
C      19.65       6.16      32.54
C      21.16       6.03      34.33
C      17.48       5.69      28.19
C      20.87       6.60      29.10
C      17.57       5.05      33.39
C       5.53      18.07       8.78
C       5.87      18.42       6.43
C       5.78      19.82       6.61
C       5.50      19.47       8.98
C       6.37      20.72      10.76
C       4.81      17.35       4.63
C       5.71      20.74       5.54
C       5.44      17.12       9.83
C       0.91      10.57      20.55
C       1.05      10.07      18.20
C       2.30       9.45      18.40
C       2.13       9.90      20.76
C       2.76       8.55      22.56
C       0.65      11.49      16.38
C       3.14       9.03      17.33
C       0.13      11.16      21.58
C      -3.29      18.33      32.35
C      -3.79      18.43      30.00
C      -4.96      17.65      30.20
C      -4.49      17.60      32.56
C      -5.98      17.74      34.37
C      -2.35      18.05      28.19
C      -5.72      17.12      29.14
C      -2.40      18.71      33.39
H       9.17      15.70       2.25
H       7.92      14.67       0.52
H      10.61      11.94       3.48
H       9.41      10.88       1.73
H       7.20       9.07       0.50
H       5.97       8.02       2.23
H       4.51      11.77       3.48
H       5.71      12.85       1.74
H       4.78      12.52      34.63
H       3.84      14.15      33.16
H       7.70      15.21      31.84
H       8.66      13.61      33.31
H      10.35      11.22      34.63
H       6.46      10.14      33.30
H       7.43       8.54      31.82
H      11.29       9.59      33.15
H      10.27      14.23       4.92
H       4.87       9.48       4.90
H       4.94      15.52      30.69
H      10.20       8.23      30.68
H      -2.95       8.53      13.99
H      -3.23      10.14      12.26
H      19.19       9.18      15.26
H      18.87      10.77      13.51
H      -7.70      13.60      12.29
H      -7.97      15.19      14.03
H      -4.01      14.52      15.29
H      -3.69      12.95      13.53
H      -3.50      13.95      11.08
H      -1.63      13.97       9.59
H      -2.67      10.13       8.20
H      -4.52      10.07       9.70
H      18.68       9.79      11.05
H      -6.42      13.70       9.73
H      17.82      13.67       8.26
H      16.79       9.80       9.57
H      -4.75       8.32      16.67
H      -6.14      15.39      16.72
H      -1.06      12.30       7.05
H      16.16      11.44       7.11
H       9.95       0.06      25.78
H      -1.57      22.11      24.05
H      12.50       3.17      27.05
H      14.03       2.66      25.30
H      16.71       1.65      24.06
H      18.23       1.09      25.79
H       2.64      20.59      27.05
H       1.11      21.10      25.30
H       1.86      20.44      22.85
H       0.93      18.81      21.37
H      -1.88      21.64      20.00
H      12.06       0.66      21.49
H      13.27       3.32      22.84
H      16.15       0.50      21.50
H      17.05       2.13      20.03
H      14.21       4.95      21.37
H      10.68       1.73      28.46
H       4.47      22.03      28.47
H      -0.80      19.14      18.85
H      15.94       4.67      18.89
H       9.06       2.64      33.73
H       8.45       2.18      32.14
H       7.92       3.70      32.90
H      10.78       7.16      27.24
H      10.09       6.83      25.65
H      11.03       5.57      26.46
H      11.89      15.21      10.18
H      11.79      15.96       8.58
H      13.38      15.67       9.34
H      14.93      11.46       3.68
H      14.98      12.23       2.09
H      13.43      12.03       2.91
H      21.35       6.48      21.95
H      22.05       6.18      20.35
H      20.99       4.96      21.12
H      16.58       5.71      15.45
H      17.22       5.27      13.86
H      17.83       6.71      14.67
H       6.08      21.11      33.73
H       6.69      21.56      32.14
H       7.21      20.04      32.90
H       4.35      16.58      27.25
H       5.04      16.91      25.66
H       4.10      18.17      26.47
H       3.24       8.62      10.18
H       3.32       7.83       8.59
H       1.74       8.18       9.36
H       0.22      12.29       3.63
H       0.16      11.50       2.05
H       1.72      11.70       2.86
H      -6.16      17.29      21.98
H      -6.87      17.60      20.40
H      -5.79      18.81      21.15
H      -1.45      18.04      15.44
H      -2.10      18.46      13.85
H      -2.70      17.02      14.68
H       9.17      15.70      26.61
H       7.92      14.67      24.87
H      10.61      11.94      27.84
H       9.41      10.88      26.09
H       7.20       9.07      24.86
H       5.97       8.02      26.59
H       4.51      11.77      27.84
H       5.71      12.85      26.09
H       4.78      12.52      23.63
H       3.84      14.15      22.16
H       7.70      15.21      20.84
H       8.66      13.61      22.31
H      10.35      11.22      23.63
H       6.46      10.14      22.30
H       7.43       8.54      20.82
H      11.29       9.59      22.15
H      10.27      14.23      29.28
H       4.87       9.48      29.26
H       4.94      15.52      19.69
H      10.20       8.23      19.68
H      -2.95       8.53       2.99
H      -3.23      10.14       1.26
H      19.19       9.18       4.26
H      18.87      10.77       2.51
H      -7.70      13.60       1.29
H      -7.97      15.19       3.03
H      -4.01      14.52       4.29
H      -3.69      12.95       2.53
H      -3.50      13.95       0.08
H      -1.63      13.97      33.95
H      -2.67      10.13      32.56
H      -4.52      10.07      34.06
H      18.68       9.79       0.05
H      -6.42      13.70      34.09
H      17.82      13.67      32.62
H      16.79       9.80      33.93
H      -4.75       8.32       5.67
H      -6.14      15.39       5.72
H      -1.06      12.30      31.41
H      16.16      11.44      31.47
H       9.95       0.06      14.78
H      -1.57      22.11      13.05
H      12.50       3.17      16.05
H      14.03       2.66      14.30
H      16.71       1.65      13.06
H      18.23       1.09      14.79
H       2.64      20.59      16.05
H       1.11      21.10      14.30
H       1.86      20.44      11.85
H       0.93      18.81      10.37
H      -1.88      21.64       9.00
H      12.06       0.66      10.49
H      13.27       3.32      11.84
H      16.15       0.50      10.50
H      17.05       2.13       9.03
H      14.21       4.95      10.37
H      10.68       1.73      17.46
H       4.47      22.03      17.47
H      -0.80      19.14       7.85
H      15.94       4.67       7.89
H       9.06       2.64      22.73
H       8.45       2.18      21.14
H       7.92       3.70      21.90
H      10.78       7.16      16.24
H      10.09       6.83      14.65
H      11.03       5.57      15.46
H      11.89      15.21      34.54
H      11.79      15.96      32.94
H      13.38      15.67      33.70
H      14.93      11.46      28.04
H      14.98      12.23      26.44
H      13.43      12.03      27.27
H      21.35       6.48      10.95
H      22.05       6.18       9.35
H      20.99       4.96      10.12
H      16.58       5.71       4.45
H      17.22       5.27       2.86
H      17.83       6.71       3.67
H       6.08      21.11      22.73
H       6.69      21.56      21.14
H       7.21      20.04      21.90
H       4.35      16.58      16.25
H       5.04      16.91      14.66
H       4.10      18.17      15.47
H       3.24       8.62      34.54
H       3.32       7.83      32.95
H       1.74       8.18      33.72
H       0.22      12.29      27.99
H       0.16      11.50      26.41
H       1.72      11.70      27.22
H      -6.16      17.29      10.98
H      -6.87      17.60       9.40
H      -5.79      18.81      10.15
H      -1.45      18.04       4.44
H      -2.10      18.46       2.85
H      -2.70      17.02       3.68
H       9.17      15.70      15.61
H       7.92      14.67      13.87
H      10.61      11.94      16.84
H       9.41      10.88      15.09
H       7.20       9.07      13.86
H       5.97       8.02      15.59
H       4.51      11.77      16.84
H       5.71      12.85      15.09
H       4.78      12.52      12.63
H       3.84      14.15      11.16
H       7.70      15.21       9.84
H       8.66      13.61      11.31
H      10.35      11.22      12.63
H       6.46      10.14      11.30
H       7.43       8.54       9.82
H      11.29       9.59      11.15
H      10.27      14.23      18.28
H       4.87       9.48      18.26
H       4.94      15.52       8.69
H      10.20       8.23       8.68
H      -2.95       8.53      27.35
H      -3.23      10.14      25.62
H      19.19       9.18      28.61
H      18.87      10.77      26.87
H      -7.70      13.60      25.65
H      -7.97      15.19      27.39
H      -4.01      14.52      28.64
H      -3.69      12.95      26.89
H      -3.50      13.95      24.44
H      -1.63      13.97      22.95
H      -2.67      10.13      21.56
H      -4.52      10.07      23.06
H      18.68       9.79      24.41
H      -6.42      13.70      23.09
H      17.82      13.67      21.62
H      16.79       9.80      22.93
H      -4.75       8.32      30.03
H      -6.14      15.39      30.07
H      -1.06      12.30      20.41
H      16.16      11.44      20.47
H       9.95       0.06       3.78
H      -1.57      22.11       2.05
H      12.50       3.17       5.05
H      14.03       2.66       3.30
H      16.71       1.65       2.06
H      18.23       1.09       3.79
H       2.64      20.59       5.05
H       1.11      21.10       3.30
H       1.86      20.44       0.85
H       0.93      18.81      34.73
H      -1.88      21.64      33.36
H      12.06       0.66      34.85
H      13.27       3.32       0.84
H      16.15       0.50      34.86
H      17.05       2.13      33.39
H      14.21       4.95      34.73
H      10.68       1.73       6.46
H       4.47      22.03       6.47
H      -0.80      19.14      32.21
H      15.94       4.67      32.24
H       9.06       2.64      11.73
H       8.45       2.18      10.14
H       7.92       3.70      10.90
H      10.78       7.16       5.24
H      10.09       6.83       3.65
H      11.03       5.57       4.46
H      11.89      15.21      23.54
H      11.79      15.96      21.94
H      13.38      15.67      22.70
H      14.93      11.46      17.04
H      14.98      12.23      15.44
H      13.43      12.03      16.27
H      21.35       6.48      35.30
H      22.05       6.18      33.71
H      20.99       4.96      34.48
H      16.58       5.71      28.80
H      17.22       5.27      27.22
H      17.83       6.71      28.03
H       6.08      21.11      11.73
H       6.69      21.56      10.14
H       7.21      20.04      10.90
H       4.35      16.58       5.25
H       5.04      16.91       3.66
H       4.10      18.17       4.47
H       3.24       8.62      23.54
H       3.32       7.83      21.95
H       1.74       8.18      22.72
H       0.22      12.29      16.99
H       0.16      11.50      15.41
H       1.72      11.70      16.22
H      -6.16      17.29      35.34
H      -6.87      17.60      33.75
H      -5.79      18.81      34.51
H      -1.45      18.04      28.80
H      -2.10      18.46      27.21
H      -2.70      17.02      28.04
N      10.65      14.49       4.06
N       4.48       9.21       4.04
N       5.17      15.81      31.59
N       9.95       7.95      31.58
N      21.38       7.86      15.81
N      -6.19      15.84      15.85
N      -0.89      12.02       7.97
N      16.04      11.79       8.01
N      10.26       1.94      27.60
N       4.87      21.82      27.61
N      -1.14      19.15      19.77
N      16.30       4.62      19.79
N       9.39       6.12      29.51
N       9.55       3.48      29.88
N      14.73      13.19       5.95
N      12.36      14.37       6.32
N      18.17       5.03      17.72
N      20.38       6.48      18.09
N       5.74      17.63      29.52
N       5.59      20.27      29.88
N       0.42      10.60       5.92
N       2.78       9.41       6.31
N      -3.03      18.72      17.72
N      -5.23      17.26      18.12
N      10.65      14.49      28.41
N       4.48       9.21      28.40
N       5.17      15.81      20.59
N       9.95       7.95      20.58
N      21.38       7.86       4.81
N      -6.19      15.84       4.85
N      -0.89      12.02      32.33
N      16.04      11.79      32.37
N      10.26       1.94      16.60
N       4.87      21.82      16.61
N      -1.14      19.15       8.77
N      16.30       4.62       8.79
N       9.39       6.12      18.51
N       9.55       3.48      18.88
N      14.73      13.19      30.30
N      12.36      14.37      30.68
N      18.17       5.03       6.72
N      20.38       6.48       7.09
N       5.74      17.63      18.52
N       5.59      20.27      18.88
N       0.42      10.60      30.28
N       2.78       9.41      30.67
N      -3.03      18.72       6.72
N      -5.23      17.26       7.12
N      10.65      14.49      17.41
N       4.48       9.21      17.40
N       5.17      15.81       9.59
N       9.95       7.95       9.58
N      21.38       7.86      29.17
N      -6.19      15.84      29.21
N      -0.89      12.02      21.33
N      16.04      11.79      21.37
N      10.26       1.94       5.60
N       4.87      21.82       5.61
N      -1.14      19.15      33.13
N      16.30       4.62      33.15
N       9.39       6.12       7.51
N       9.55       3.48       7.88
N      14.73      13.19      19.30
N      12.36      14.37      19.68
N      18.17       5.03      31.08
N      20.38       6.48      31.45
N       5.74      17.63       7.52
N       5.59      20.27       7.88
N       0.42      10.60      19.28
N       2.78       9.41      19.67
N      -3.03      18.72      31.08
N      -5.23      17.26      31.48
O       9.90       3.71      32.19
O       9.09       5.92      27.20
O       9.32       6.25      33.07
O       8.93       3.37      26.32
O      12.40      13.95       8.63
O      14.69      13.54       3.64
O      14.88      13.18       9.51
O      12.55      14.94       2.77
O      20.01       6.68      20.40
O      18.50       4.86      15.41
O      18.08       4.93      21.28
O      20.79       5.99      14.53
O       5.24      20.05      32.19
O       6.04      17.83      27.21
O       5.79      17.50      33.08
O       6.19      20.37      26.32
O       2.76       9.86       8.61
O       0.45      10.20       3.62
O       0.32      10.73       9.50
O       2.57       8.78       2.76
O      -4.84      17.08      20.42
O      -3.37      18.87      15.42
O      -2.88      18.79      21.29
O      -5.67      17.72      14.56
O       9.90       3.71      21.19
O       9.09       5.92      16.20
O       9.32       6.25      22.07
O       8.93       3.37      15.32
O      12.40      13.95      32.99
O      14.69      13.54      28.00
O      14.88      13.18      33.87
O      12.55      14.94      27.13
O      20.01       6.68       9.40
O      18.50       4.86       4.41
O      18.08       4.93      10.28
O      20.79       5.99       3.53
O       5.24      20.05      21.19
O       6.04      17.83      16.21
O       5.79      17.50      22.08
O       6.19      20.37      15.32
O       2.76       9.86      32.97
O       0.45      10.20      27.98
O       0.32      10.73      33.86
O       2.57       8.78      27.12
O      -4.84      17.08       9.42
O      -3.37      18.87       4.42
O      -2.88      18.79      10.29
O      -5.67      17.72       3.56
O       9.90       3.71      10.19
O       9.09       5.92       5.20
O       9.32       6.25      11.07
O       8.93       3.37       4.32
O      12.40      13.95      21.99
O      14.69      13.54      17.00
O      14.88      13.18      22.87
O      12.55      14.94      16.13
O      20.01       6.68      33.76
O      18.50       4.86      28.77
O      18.08       4.93      34.64
O      20.79       5.99      27.89
O       5.24      20.05      10.19
O       6.04      17.83       5.21
O       5.79      17.50      11.08
O       6.19      20.37       4.32
O       2.76       9.86      21.97
O       0.45      10.20      16.98
O       0.32      10.73      22.86
O       2.57       8.78      16.12
O      -4.84      17.08      33.78
O      -3.37      18.87      28.78
O      -2.88      18.79      34.65
O      -5.67      17.72      27.92
Si       7.56      11.87      35.20
Si      -5.46      11.87      11.62
Si      14.10       0.58      23.40
Si       7.56      11.87      24.20
Si      -5.46      11.87       0.62
Si      14.10       0.58      12.40
Si       7.56      11.87      13.20
Si      -5.46      11.87      24.98
Si      14.10       0.58       1.40
