33

H       8.83      11.44       3.27
H       5.99       9.14       5.55
H       6.30      10.67       7.53
H      11.59      13.67       5.50
H      11.13      12.46       4.29
H      11.13      12.04       6.03
H       9.82      15.22       4.47
H       9.21      13.99       3.36
H       8.10      14.76       4.51
H       6.99      12.54       9.24
H      10.45      15.44       7.06
H       8.03      14.44      10.48
O       6.48       8.26       3.17
O       7.67       9.72       1.98
O       9.53      16.44      10.78
O      10.88      16.84       9.04
C       7.15       9.35       3.10
C       7.37      10.21       4.30
C       8.29      11.28       4.20
C       6.67       9.98       5.50
C       8.49      12.10       5.29
C       6.86      10.83       6.61
C       7.77      11.89       6.49
C       9.44      13.29       5.42
C       8.17      12.92       7.45
C      10.91      12.83       5.30
C       9.14      13.75       6.84
C       9.12      14.38       4.38
C       7.75      13.16       8.77
C       9.71      14.80       7.52
C       8.33      14.23       9.46
C       9.30      15.05       8.85
C       9.92      16.16       9.59
