33

H       6.51       3.93      15.62
H       8.93       1.87      12.70
H       9.94       0.46      14.50
H       7.77       3.73      19.59
H       8.91       4.04      18.27
H       7.22       4.56      18.12
H       5.74       1.12      17.67
H       5.86       1.95      19.24
H       5.37       2.86      17.80
H       8.06       1.25      20.49
H      10.64      -0.74      16.67
H      10.96      -1.58      19.03
O       8.91      -0.32      22.15
O      10.53      -1.71      21.43
O       7.57       3.88      11.82
O       6.04       4.56      13.30
C       7.06       3.83      13.01
C       7.67       2.98      14.06
C       7.25       3.17      15.39
C       8.64       2.00      13.74
C       7.80       2.38      16.38
C       9.19       1.20      14.74
C       7.51       2.40      17.87
C       8.77       1.40      16.06
C       7.88       3.77      18.50
C       8.44       1.30      18.36
C       6.03       2.06      18.16
C       9.17       0.73      17.29
C       8.62       0.84      19.65
C      10.09      -0.31      17.51
C       9.54      -0.21      19.87
C      10.27      -0.76      18.81
C       9.68      -0.76      21.24
