33

C      15.29       6.09      18.69
C      14.37       5.02      18.79
C      15.99       6.32      17.48
C      14.17       4.20      17.69
C      15.81       5.48      16.38
C      14.90       4.41      16.49
C      13.23       3.02      17.56
C      14.50       3.39      15.53
C      11.75       3.47      17.68
C      13.53       2.56      16.15
C      13.54       1.92      18.61
C      14.91       3.14      14.22
C      12.96       1.50      15.46
C      14.34       2.07      13.52
C      13.37       1.26      14.14
C      12.74       0.15      13.40
H      13.83       4.86      19.72
H      16.67       7.16      17.44
H      16.37       5.63      15.46
H      11.07       2.63      17.48
H      11.54       3.85      18.69
H      11.54       4.27      16.96
H      12.85       1.08      18.51
H      13.46       2.32      19.63
H      14.57       1.54      18.47
H      15.67       3.76      13.75
H      12.21       0.86      15.93
H      14.64       1.86      12.50
O      16.18       8.05      19.80
O      15.01       6.58      21.01
O      13.14      -0.15      12.21
O      11.79      -0.53      13.94
C      15.51       6.95      19.88
