33

C      15.60      12.48       9.97
C      14.99      13.33       8.93
C      15.42      13.14       7.59
C      14.03      14.31       9.25
C      14.86      13.92       6.60
C      13.48      15.10       8.24
C      15.16      13.90       5.11
C      13.90      14.91       6.92
C      14.79      12.54       4.48
C      14.23      15.01       4.62
C      16.64      14.24       4.82
C      13.49      15.58       5.69
C      14.05      15.46       3.33
C      12.58      16.62       5.46
C      13.13      16.50       3.09
C      12.40      17.07       4.16
C      12.99      17.04       1.72
H      16.16      12.37       7.37
H      13.74      14.44      10.29
H      12.72      15.85       8.48
H      14.90      12.57       3.39
H      13.75      12.26       4.71
H      15.45      11.74       4.87
H      16.92      15.18       5.31
H      16.81      14.35       3.74
H      17.30      13.44       5.19
H      14.61      15.05       2.49
H      12.03      17.05       6.30
O      13.77      16.59       0.81
H      11.72      17.89       3.94
O      12.13      17.97       1.52
O      15.10      12.42      11.16
O      16.63      11.75       9.68
