52

C       3.10       0.06      16.40
C       2.37       1.21      16.19
C       2.32       1.85      14.93
C       3.04       1.32      13.89
C       3.85       0.16      14.06
C       4.84      -2.37      16.79
C       7.05      -3.02      12.26
C       7.69      -3.30      10.92
H       6.17       2.91      10.04
H       3.11       0.41       7.27
Cl       1.44      -1.91       7.13
H       3.01      -1.82      11.73
H       1.72      -2.75       9.84
Cl       1.46       1.92      17.51
H       7.80       2.85      11.61
H       6.42       3.86      12.08
H       8.34       4.15      13.68
H       6.94       3.42      14.52
H       8.33       2.41      14.04
C       4.64       0.33      11.66
C       5.47       1.43      11.47
C       5.52       2.06      10.20
C       4.74       1.60       9.14
C       3.88       0.47       9.30
O       3.95       2.47       7.04
C       3.10      -0.08       8.24
C       2.36      -1.22       8.45
C       2.31      -1.86       9.71
O       6.21       1.83      12.54
O       6.07       2.84       7.63
C       3.04      -1.33      10.76
H       6.16      -2.94      14.61
C       3.85      -0.17      10.59
O       6.00      -2.85      17.08
O       3.84      -2.53      17.55
C       7.70       3.26      13.74
C       4.91       2.33       7.86
C       7.05       3.01      12.39
H       3.10      -0.42      17.37
H       1.73       2.76      14.80
H       3.02       1.81      12.91
O       6.21      -1.84      12.12
H       7.80      -2.85      13.04
H       6.42      -3.87      12.59
H       8.33      -4.18      10.99
H       6.93      -3.47      10.14
H       8.31      -2.45      10.60
C       4.63      -0.34      12.98
C       5.46      -1.45      13.18
C       5.50      -2.08      14.44
C       4.72      -1.63      15.50
C       3.87      -0.49      15.34
