52

H       5.96       3.87       0.27
H       4.05       4.18      -1.33
H       5.46       3.47      -2.18
H       4.08       2.45      -1.72
H       6.22      -2.91      -2.29
H       9.27      -0.41      -5.05
H      10.67       2.75      -2.49
H       9.37       1.82      -0.60
H       4.59      -2.85      -0.72
H       5.96      -3.86      -0.25
H       4.05      -4.15       1.36
H       5.45      -3.42       2.20
C       7.75      -0.33      -0.66
C       6.92      -1.43      -0.86
C       6.87      -2.06      -2.12
C       7.64      -1.60      -3.18
C       7.75       0.34       0.66
C       8.51      -0.47      -3.02
C      10.03       1.22      -3.87
C      10.07       1.86      -2.61
C       7.67       1.63       3.18
C       6.92       1.45       0.86
C       9.28       0.08      -4.08
C       9.35       1.33      -1.57
C       8.54       0.17      -1.74
C       7.47      -2.33      -4.47
C       5.34      -3.01       0.07
C       6.89       2.08       2.12
C       8.54      -0.16       1.73
C       8.52       0.49       3.02
C       9.34      -1.32       1.56
C       5.34       3.02      -0.06
C       4.70       3.30      -1.41
C       4.69      -3.26       1.42
C       7.55       2.37       4.46
Cl      10.94       1.91      -5.20
Cl      10.93      -1.92       5.19
O       6.32      -2.84      -4.70
O       8.44      -2.47      -5.28
O       6.17      -1.83       0.21
O       6.39       2.85       4.76
C       9.29      -0.06       4.08
O       6.17       1.84      -0.21
O       8.54       2.53       5.23
C      10.02      -1.21       3.87
C      10.06      -1.85       2.61
H       4.06      -2.41       1.71
H       6.23       2.94       2.28
H       9.29       0.42       5.05
H      10.65      -2.76       2.48
H       9.37      -1.81       0.59
H       4.59       2.85       0.72
