52

C       8.52       9.92       0.53
C       9.16       9.33      -0.57
C       9.44      10.09      -1.73
H       9.93       9.63      -2.59
C       9.12      11.44      -1.79
H       9.59       7.55      -2.50
H      11.16       7.79      -1.69
C       8.48      12.08      -0.69
C       7.50      11.95       1.55
C       8.17      11.30       0.47
C       9.56      12.23      -2.99
C      10.15       7.37      -1.57
C      10.20       5.88      -1.26
C       8.15       9.05       1.68
C       7.22       8.03       1.45
C       7.44      14.02       0.32
C       7.15      13.28       1.49
C       8.45       8.19       4.00
C       6.91       7.10       2.46
C       7.54       7.14       3.69
H       6.96       5.93       0.12
H       5.26       6.43      -0.03
C       8.73       9.17       2.98
H       6.15       5.81      -2.30
C       6.29       6.68      -0.32
C       6.46       6.75      -1.83
H       7.51       6.94      -2.09
C       7.21       6.04       4.64
C       9.89       9.39       5.55
C       9.62      10.23       3.30
H       8.30      14.03      -1.65
Cl       6.93      15.69       0.22
H       6.65      13.77       2.32
Cl      10.62       9.56       7.13
H       7.26      11.37       2.44
C       9.05       8.33       5.28
O      10.43      13.15      -2.81
O       9.10      11.95      -4.15
O       9.49       8.02      -0.46
O       5.99       5.67       4.69
O       8.16       5.49       5.29
O       6.64       7.98       0.21
C       8.09      13.44      -0.75
H      10.67       5.35      -2.10
H      10.78       5.68      -0.35
H       9.19       5.48      -1.12
H       6.17       6.32       2.28
H       8.85       7.59       6.05
H      10.87      11.17       4.79
H       9.86      10.97       2.54
C      10.19      10.35       4.55
H       5.85       7.56      -2.24
