52

C       2.31       7.44      24.13
C       2.95       8.03      25.23
C       3.24       7.26      26.38
C       2.92       5.92      26.44
C       2.26       5.28      25.35
C       1.86       3.92      25.41
C       1.21       3.34      24.34
C       0.93       4.08      23.17
C       1.28       5.41      23.11
C       1.95       6.06      24.19
C       3.36       5.14      27.64
C       3.96       9.98      26.22
C       4.02      11.47      25.91
C       1.94       8.31      22.98
C       1.02       9.34      23.21
C       0.72      10.28      22.21
C       1.34      10.23      20.97
C       2.26       9.17      20.66
C       2.86       9.03      19.38
C       3.69       7.97      19.12
C       3.99       7.01      20.12
C       3.42       7.13      21.37
C       2.53       8.19      21.68
C       1.01      11.33      20.02
C       0.09      10.69      24.98
C       0.28      10.62      26.48
Cl       0.71       1.67      24.42
Cl       4.42       7.78      17.54
O       4.23       4.22      27.46
O       2.92       5.43      28.81
O       3.28       9.34      25.11
O      -0.21      11.69      19.95
O       1.96      11.88      19.36
O       0.43       9.38      24.44
H       3.74       7.72      27.23
H       2.07       3.33      26.30
H       0.44       3.60      22.33
H       1.04       5.99      22.22
H       3.40       9.80      27.15
H       4.96       9.55      26.33
H       4.50      12.00      26.74
H       4.61      11.66      25.00
H       3.01      11.88      25.77
H      -0.01      11.06      22.39
H       2.67       9.77      18.61
H       4.67       6.19      19.89
H       3.65       6.40      22.13
H       0.75      11.44      24.52
H      -0.95      10.93      24.70
H      -0.02      11.57      26.94
H      -0.33       9.82      26.92
H       1.33      10.44      26.73
