52

Cl       5.52      15.70      12.10
Cl       1.81       9.59       5.22
H       2.49       9.65      14.91
H       4.16      14.04      13.98
H       5.79      13.78      10.01
H       5.19      11.38       9.89
H       2.83       7.57      14.83
H       1.27       7.82      14.00
H       1.73       5.37      14.41
H       1.62       5.71      12.67
H       3.22       5.49      13.44
H       6.24       6.31      10.07
H       3.56       7.60       6.28
H       1.56      11.18       7.56
H       2.58      10.97       9.81
H       5.48       5.93      12.20
H       7.18       6.44      12.38
O       2.95       8.03      12.79
H       6.56       7.55      14.60
H       4.90       6.93      14.41
O       5.80       7.99      12.12
H       6.25       5.80      14.62
O       2.00      13.15      15.14
O       3.31      11.94      16.48
O       6.44       5.68       7.63
O       4.27       5.49       7.03
C       3.92       9.93      11.80
C       3.28       9.35      12.90
C       2.99      10.11      14.06
C       3.31      11.45      14.12
C       3.97      12.09      13.03
C       4.37      13.45      13.09
C       5.02      14.03      12.02
C       5.30      13.29      10.85
C       4.95      11.96      10.78
C       4.28      11.31      11.86
C       2.87      12.23      15.31
C       2.27       7.39      13.90
C       2.21       5.90      13.58
C       4.29       9.06      10.65
C       5.21       8.03      10.89
C       5.51       7.10       9.88
C       4.89       7.14       8.65
C       3.97       8.20       8.34
C       3.37       8.34       7.05
C       2.54       9.41       6.80
C       2.24      10.36       7.79
C       2.81      10.24       9.04
C       3.70       9.18       9.36
C       5.22       6.04       7.69
C       6.14       6.68      12.65
C       5.95       6.75      14.16
