78

Ca       4.73       2.18       0.85
Ca       3.02       3.32       7.85
Ca      -2.89       3.17      16.54
Ca      -1.18       2.04       9.54
Ca       4.72       4.02       4.35
Ca      -2.88       1.33      13.04
H       1.85       2.52       4.79
H      -0.28       2.63       1.39
H      -2.16       2.33       4.93
H       4.45       0.80       3.91
H       5.39      -1.13       7.30
H       1.97       6.17       3.76
H      -0.01       2.84      12.60
H       2.12       2.72      16.00
H       4.00       3.02      12.46
H      -2.61       4.56      13.48
H      -3.55       6.48      10.09
H      -0.13      -0.81      13.63
C       1.03       2.51       4.35
C       0.98       2.61       2.97
C      -1.43       2.49       3.06
C       2.26       2.70       2.20
C      -0.25       2.59       2.32
C       7.18       2.47       2.34
C      -0.05       2.28       6.60
C      -1.37       2.39       4.44
C      -0.14       2.38       5.09
C       4.76       0.03       4.34
C       4.88       0.02       5.72
C       1.84       6.90       5.64
C       4.46       1.25       6.50
C       5.34      -1.11       6.38
C       2.33       5.68       6.35
C       1.11       8.09       2.10
C       1.72       6.91       4.26
C       1.23       8.04       3.60
C       0.81       2.85      13.04
C       0.87       2.75      14.42
C       3.27       2.86      14.33
C      -0.42       2.66      15.19
C       2.09       2.77      15.07
C      -5.34       2.88      15.05
C       1.89       3.07      10.79
C       3.22       2.96      12.95
C       1.98       2.97      12.30
C      -2.92       5.32      13.05
C      -3.04       5.33      11.66
C       0.00      -1.55      11.75
C      -2.62       4.11      10.89
C      -3.49       6.47      11.01
C      -0.49      -0.33      11.04
C       0.74      -2.73      15.29
C       0.12      -1.56      13.13
C       0.61      -2.69      13.79
O       3.32       2.99       2.81
O       2.25       2.45       0.96
O       6.13       2.79       2.98
O       7.14       2.14       1.14
O      -1.13       2.12       7.23
O       1.08       2.36       7.13
O       4.31       2.33       5.89
O       4.24       1.14       7.74
O       3.03       4.84       5.71
O       2.04       5.52       7.56
O       1.37       7.03       1.46
O       4.61       0.03       1.57
O      -1.48       2.37      14.58
O      -0.41       2.90      16.43
O      -4.29       2.57      14.41
O      -5.30       3.21      16.25
O       2.97       3.24      10.16
O       0.76       2.99      10.26
O      -2.47       3.02      11.50
O      -2.40       4.21       9.65
O      -1.19       0.51      11.68
O      -0.20      -0.16       9.83
O       0.47      -1.68      15.92
O      -2.77       5.33      15.82
