26

O       0.57       9.10      12.46
O       0.57      10.72       6.26
C       3.34       9.98       8.59
C       3.34       9.85      10.13
C       1.07      11.17       8.86
C       1.07       8.65       9.86
C       1.24       8.75       8.34
O       2.86       8.90      12.66
C       1.89      10.10       8.07
C       1.24      11.07      10.38
O       2.86      10.92       6.06
C       1.89       9.72      10.66
C       1.79       9.34      12.08
C       1.79      10.49       6.64
H       3.96      10.81       8.27
H       3.96       9.01      10.46
H       3.84       9.10       8.15
H       3.84      10.73      10.58
H       1.23      12.19       8.50
H       1.23       7.63      10.23
H       1.87      11.90      10.77
H       1.87       7.92       7.96
H       0.26       8.68       7.84
H       0.26      11.14      10.89
H       0.00       8.90      10.05
H       0.00      10.93       8.68
