28

H       5.14       0.90       0.98
C       7.28      -1.07      -2.60
H       5.14      -0.89      -0.98
H       5.55       0.79      -1.28
H       5.55      -0.79       1.28
C       7.28       1.07       2.60
H       7.27       2.25      -0.13
O       8.44      -1.08      -3.24
O       8.44       1.08       3.24
O       6.14      -0.88      -3.22
O       6.14       0.88       3.22
O       9.56      -0.38       1.26
O       9.57       0.38      -1.26
C       5.89       0.12       0.75
C       5.89      -0.12      -0.75
C       7.95       1.47       0.15
C       7.95      -1.47      -0.15
C       8.21      -0.76       1.19
C       8.21       0.76      -1.19
C       7.33       0.50       1.21
C       7.33      -0.50      -1.21
H       7.27      -2.25       0.13
H       7.95       1.43      -2.04
H       7.95      -1.44       2.04
H       8.85      -1.94      -0.54
H       8.85       1.94       0.54
H       9.84      -0.41       2.21
H       9.85       0.41      -2.21
