96

Cu       1.07       3.36       7.63
Cu       8.58       0.89      15.23
Cu      10.11       2.62       4.82
Cu      -0.47       6.52       2.81
Cu       8.60       3.54       7.65
Cu       1.09       6.02       0.05
Cu      -0.43       4.29      10.45
Cu      10.14       0.38      12.47
H       4.79       3.16       5.88
H       4.84       5.87       1.73
H      -0.67      10.69       2.37
H       0.26      -1.48       5.30
H      -0.26       4.49       1.55
H      -0.43       4.66       6.07
H       4.88       3.75       9.39
H       4.84       1.03      13.54
H      10.35      -3.78      12.90
H       9.41       8.39       9.97
H       9.94       2.42      13.73
H      10.10       2.24       9.20
C       3.60       4.95       3.23
C       3.59       4.18       4.41
C       4.80       3.76       4.97
C       6.02       4.07       4.37
C       6.04       4.85       3.20
C       4.83       5.27       2.64
C       2.35       5.45       2.56
C       2.32       3.76       5.11
C       7.29       3.58       5.02
C       7.32       5.29       2.54
C      10.42       0.95       1.04
C      10.24      -3.14      14.96
C      -0.73      11.00       1.33
C      10.36       1.93       2.17
C       9.90      -1.75      14.49
C      -0.01      -0.87       7.35
C      -0.71       8.21       6.59
C       0.13      -1.82       6.33
C       0.11       0.57       6.91
C      -0.47       7.23       5.47
C       6.07       1.96      12.04
C       6.09       2.72      10.86
C       4.88       3.15      10.30
C       3.65       2.84      10.91
C       3.64       2.06      12.07
C       4.85       1.64      12.64
C       7.32       1.46      12.71
C       7.35       3.15      10.16
C       2.39       3.32      10.25
C       2.35       1.62      12.74
C      -0.75       5.96      14.24
C      -0.56      10.04       0.32
C      10.41      -4.10      13.95
C      -0.68       4.98      13.10
C      -0.23       8.65       0.79
C       9.68       7.77       7.93
C      10.38      -1.30       8.68
C       9.55       8.73       8.95
C       9.56       6.34       8.36
C      10.14      -0.33       9.80
O       2.42       5.41       1.28
O       1.40       5.87       3.29
O       2.32       4.05       6.36
O       1.45       3.13       4.44
O       8.25       3.25       4.27
O       7.22       3.56       6.30
O       7.33       5.02       1.28
O       8.18       5.87       3.25
O      10.12       1.41       3.33
O      -0.00       3.14       1.99
O       8.80      -1.24      14.84
O       0.17      -1.23      13.68
O       1.11       1.23       7.33
O       9.81       0.95       6.08
O      -0.60       7.73       4.28
O      -0.13       6.05       5.72
O      10.16       5.47       1.23
O      10.08       3.68       6.39
O       7.25       1.50      13.99
O       8.27       1.03      11.98
O       7.35       2.86       8.92
O       8.22       3.78      10.83
O       1.42       3.66      11.00
O       2.46       3.34       8.98
O       2.34       1.88      13.99
O       1.49       1.04      12.03
O      -0.44       5.50      11.94
O       9.67       3.76      13.29
O       0.87       8.14       0.43
O       9.50       8.13       1.59
O       8.57       5.67       7.95
O      -0.13       5.96       9.19
O      10.27      -0.83      10.99
O       9.81       0.85       9.56
O      -0.48       1.44      14.05
O      -0.41       3.23       8.89
