12

Gd       2.46       0.04      20.38
O       3.92       1.69      19.76
O       3.20      -1.07      18.39
O       1.46       0.27      18.23
O       1.03      -1.75      20.51
O       1.06       1.58      21.24
O       3.90      -1.08      21.70
C       0.05      -2.18      19.81
N       2.30      -0.52      17.62
C      -0.07       2.18      21.20
C       4.88      -1.90      21.79
C       5.06       1.91      19.22
