77

O       6.38      11.25      29.32
O       5.14      12.45      30.80
O      16.85      20.67      28.58
O      15.59      19.35      29.85
O      13.17      16.39      26.54
O       9.72      14.33      27.49
O       9.75      16.00      24.37
O       7.92      18.19      30.21
O       5.98      17.40      31.15
O       8.05      19.82      21.85
O       6.25      19.08      20.63
O      14.30       9.70      28.16
O      16.08       8.70      27.14
O      15.72      11.91      21.51
O      16.73       9.93      22.07
O      12.75      13.27      24.96
O       7.18      12.78      21.52
O       6.04      14.06      20.01
O      16.26      20.73      23.63
O      14.98      19.20      22.65
H      16.44      20.51      26.14
H      13.89      17.65      24.20
H      14.33      17.59      28.51
H      11.79      16.96      25.09
H      12.93      15.68      24.59
H       9.58      14.01      25.02
H      10.87      14.33      23.81
H       9.95      16.31      26.83
H      11.24      15.70      27.91
H       8.57      13.94      23.00
H       6.28      16.53      20.44
H       8.94      18.22      23.38
H       8.16      12.48      28.26
H       5.73      14.89      30.89
H       9.03      16.68      28.78
H      13.36      11.50      27.01
H      11.39      12.88      26.50
H      12.82      13.84      26.97
H      14.10      12.67      22.93
H      16.26       9.35      24.65
C       6.07      12.33      29.94
C      15.99      19.72      28.68
C      15.44      19.10      27.45
C      15.76      19.66      26.20
C      15.19      19.13      25.05
C      14.31      18.03      25.13
C      14.01      17.47      26.38
C      14.57      18.01      27.54
C      12.33      16.06      25.42
C      11.34      14.97      25.85
C      10.35      14.73      24.69
C      10.56      15.43      27.10
C       8.85      16.06      23.34
C       8.30      14.95      22.71
C       7.37      15.12      21.66
C       6.99      16.40      21.25
C       7.56      17.52      21.88
C       8.49      17.35      22.91
C       7.27      18.92      21.42
C       8.72      14.56      28.40
C       7.94      13.44      28.72
C       6.87      13.55      29.62
C       6.57      14.80      30.20
C       7.35      15.91      29.89
C       8.44      15.79      29.00
C       7.05      17.26      30.47
C      15.10       9.51      27.15
C      14.83      10.34      25.94
C      13.87      11.38      26.06
C      13.62      12.21      24.97
C      12.09      13.66      26.17
C      14.30      12.01      23.77
C      15.24      10.99      23.63
C      15.51      10.14      24.73
C      15.96      10.92      22.31
C       6.81      13.91      21.01
C      15.48      19.71      23.71
