77

O       6.45       0.67      38.95
O       5.44      -1.31      38.39
O       9.42       2.03      35.50
O      14.99       1.54      38.94
O      16.13       2.82      40.45
O       5.91       9.49      36.83
O       7.19       7.96      37.81
H       5.73       9.28      34.32
H       8.28       6.41      36.26
H       7.84       6.35      31.95
H      10.38       5.72      35.38
H       9.23       4.44      35.87
H      12.59       2.77      35.44
H      11.30       3.09      36.65
H      12.22       5.07      33.63
H      10.93       4.46      32.55
H      13.60       2.70      37.47
H      15.89       5.29      40.02
H      13.23       6.98      37.08
H      14.01       1.24      32.20
H      16.44       3.65      29.57
H      13.14       5.44      31.68
H       8.81       0.26      33.45
H      10.78       1.64      33.96
H       9.35       2.61      33.49
H       8.07       1.43      37.53
H       5.91      -1.89      35.81
C      16.10       1.09      30.52
C       6.18       8.48      31.78
C       6.72       7.86      33.01
C       6.40       8.43      34.26
C       6.98       7.89      35.41
C       7.86       6.79      35.33
C       8.16       6.23      34.09
C       7.59       6.77      32.92
C       9.84       4.82      35.04
C      10.83       3.73      34.61
C      11.82       3.49      35.77
C      11.61       4.19      33.36
C      13.32       4.82      37.13
C      13.87       3.71      37.76
C      14.80       3.89      38.80
C      15.18       5.17      39.21
C      14.61       6.28      38.58
C      13.68       6.11      37.55
C      14.90       7.68      39.04
C      13.45       3.32      32.06
C      14.23       2.20      31.74
C      15.30       2.32      30.84
C      15.60       3.56      30.26
C      14.82       4.67      30.57
C      13.73       4.55      31.47
C      15.12       6.02      30.00
C       7.07      -1.73      33.31
C       7.34      -0.89      34.52
C       8.30       0.14      34.40
C       8.55       0.97      35.49
C      10.08       2.42      34.29
C       7.87       0.77      36.69
C       6.93      -0.25      36.83
C       6.66      -1.10      35.73
C       6.20      -0.32      38.15
C      15.35       2.67      39.45
C       6.69       8.47      36.75
O      15.79       0.01      31.14
O      17.03       1.21      29.66
O       5.32       9.43      31.88
O       6.58       8.11      30.61
O       9.00       5.15      33.92
O      12.45       3.09      32.97
O      12.42       4.76      36.09
O      14.25       6.95      30.25
O      16.19       6.16      29.31
O      14.12       8.58      38.61
O      15.92       7.84      39.83
O       7.87      -1.54      32.30
O       6.09      -2.54      33.32
