77

O       3.22      19.46      31.96
O       2.63      21.07      30.45
O      -4.14      11.60      32.24
O      -5.91      10.50      33.12
O       1.21      22.14      41.26
O       2.15      20.54      39.91
O      -7.13      11.43      37.74
O      -6.11      13.04      39.00
O      -2.97      15.15      35.41
O      -0.49      18.34      34.68
O       2.61      12.71      32.71
O       3.82      11.11      33.67
O       3.09      12.45      39.89
O       4.30      11.04      38.67
O      -4.89      21.62      39.55
O      -3.69      23.00      40.91
O      -1.88      18.32      37.73
O       0.20      14.91      36.72
H      -6.40      11.19      35.51
H      -4.49      14.42      37.62
H      -3.44      13.58      33.51
H      -3.33      16.51      36.96
H      -2.24      15.14      37.37
H      -2.48      18.32      35.35
H      -2.06      17.07      34.13
H      -2.59      19.35      33.22
H      -0.02      21.24      30.32
H       1.68      18.98      33.58
H       0.63      16.29      35.22
H      -0.64      15.10      34.82
H       1.20      13.98      34.31
H       3.95      11.25      36.17
H       1.45      13.78      38.62
H      -3.70      19.87      38.53
H       0.07      18.09      37.00
H      -0.48      16.83      38.15
H       0.54      19.11      38.84
H      -1.21      22.41      40.97
C      -2.65      20.84      31.03
C       2.39      20.25      31.38
C      -5.05      11.39      33.18
C      -4.94      12.29      34.38
C      -5.70      12.02      35.52
C      -5.53      12.78      36.68
C      -6.32      12.40      37.90
C       1.16      21.18      40.41
C      -4.62      13.85      36.71
C      -3.89      14.13      35.55
C      -4.04      13.36      34.39
C      -2.53      15.85      36.58
C      -1.31      16.66      36.14
C      -1.70      17.62      35.00
C      -0.46      19.10      33.55
C      -1.59      19.57      32.87
C      -1.42      20.36      31.72
C      -0.14      20.65      31.22
C       0.98      20.13      31.90
C       0.81      19.38      33.06
C      -0.22      15.72      35.62
C       1.18      13.98      36.49
C       1.61      13.57      35.22
C       2.60      12.57      35.12
C       3.02      12.12      33.77
C       3.18      12.01      36.26
C       2.76      12.47      37.52
C       1.76      13.44      37.64
C       3.40      11.96      38.74
C      -3.81      22.01      40.12
C      -2.59      21.22      39.79
C      -2.73      20.12      38.94
C      -1.61      19.36      38.59
C      -0.79      17.48      37.33
C      -0.35      19.68      39.10
C      -0.21      20.79      39.95
C      -1.32      21.55      40.31
O      -2.53      21.58      30.00
O      -3.77      20.47      31.55
