77

O       8.55      12.14      10.31
O       7.31      13.24       8.75
O      14.31      14.26       8.35
O      13.72      12.64       9.86
O       6.95      22.12       8.06
O       5.17      23.21       7.19
O      12.29      11.58      -0.95
O      13.24      13.17       0.40
O       3.95      22.29       2.57
O       4.97      20.68       1.31
O       8.11      18.57       4.89
O      10.60      15.38       5.63
O      13.69      21.01       7.59
O      14.91      22.60       6.64
O      14.17      21.27       0.41
O      15.38      22.68       1.64
O       6.19      12.10       0.75
O       7.39      10.72      -0.61
O       9.21      15.39       2.57
O      11.29      18.80       3.58
H       4.68      22.53       4.80
H       6.59      19.29       2.69
H       7.65      20.14       6.79
H       7.76      17.21       3.35
H       8.84      18.57       2.94
H       8.61      15.40       4.96
H       9.03      16.64       6.18
H       8.49      14.37       7.09
H      11.07      12.48       9.99
H      12.76      14.74       6.73
H      11.72      17.43       5.09
H      10.44      18.62       5.49
H      12.28      19.73       6.00
H      15.03      22.47       4.14
H      12.54      19.94       1.68
H       7.38      13.85       1.77
H      11.16      15.63       3.31
H      10.61      16.89       2.15
H      11.62      14.61       1.47
H       9.88      11.31      -0.66
C       8.43      12.87       9.28
C      13.47      13.47       8.93
C       6.04      22.32       7.12
C       6.15      21.42       5.93
C       5.38      21.70       4.79
C       5.55      20.94       3.63
C       4.77      21.32       2.41
C      12.25      12.53      -0.10
C       6.47      19.87       3.60
C       7.20      19.58       4.76
C       7.05      20.36       5.92
C       8.55      17.86       3.73
C       9.77      17.05       4.17
C       9.39      16.09       5.30
C      10.62      14.62       6.76
C       9.50      14.15       7.43
C       9.66      13.36       8.59
C      10.95      13.07       9.09
C      12.07      13.59       8.41
C      11.90      14.34       7.25
C      10.87      17.99       4.69
C      12.27      19.73       3.82
C      12.70      20.15       5.08
C      13.68      21.14       5.19
C      14.11      21.60       6.54
C      14.26      21.71       4.05
C      13.85      21.25       2.79
C      12.85      20.28       2.67
C      14.49      21.76       1.56
C       7.28      11.71       0.19
C       8.50      12.50       0.51
C       8.36      13.59       1.37
C       9.47      14.36       1.71
C      10.30      16.24       2.98
C      10.73      14.04       1.21
C      10.87      12.93       0.36
C       9.76      12.16      -0.00
