77

O       4.70      11.23       9.16
O       5.94      10.03      10.65
O      -5.77       1.81       8.43
O      -4.51       3.13       9.70
O      -2.08       6.09       6.39
O       1.37       8.15       7.34
O       1.34       6.47       4.22
O       3.17       4.29      10.06
O       5.10       5.08      11.00
O       3.03       2.66       1.70
O       4.83       3.40       0.48
O      -3.21      12.78       8.00
O      -5.00      13.78       6.99
O      -4.64      10.57       1.36
O      -5.64      12.55       1.91
O      -1.66       9.21       4.80
O       3.90       9.70       1.36
O       5.05       8.42      -0.14
O      -5.18       1.74       3.47
O      -3.90       3.28       2.50
H      -5.36       1.96       5.98
H      -2.80       4.83       4.05
H      -3.24       4.89       8.36
H      -0.71       5.52       4.93
H      -1.85       6.80       4.43
H       1.51       8.46       4.86
H       0.22       8.15       3.66
H       1.14       6.17       6.68
H      -0.16       6.78       7.76
H       2.52       8.54       2.84
H       4.81       5.95       0.28
H       2.15       4.26       3.23
H       2.92      10.00       8.11
H       5.36       7.59      10.74
H       2.06       5.80       8.63
H      -2.27      10.98       6.86
H      -0.30       9.60       6.34
H      -1.74       8.63       6.81
H      -3.01       9.81       2.78
H      -5.17      13.13       4.49
C       5.01      10.14       9.79
C      -4.91       2.76       8.53
C      -4.36       3.38       7.30
C      -4.68       2.81       6.05
C      -4.10       3.35       4.90
C      -3.23       4.45       4.98
C      -2.93       5.01       6.22
C      -3.49       4.47       7.39
C      -1.24       6.42       5.27
C      -0.25       7.51       5.70
C       0.74       7.75       4.54
C       0.53       7.05       6.94
C       2.24       6.41       3.18
C       2.79       7.53       2.55
C       3.71       7.35       1.51
C       4.09       6.07       1.09
C       3.52       4.96       1.72
C       2.60       5.13       2.76
C       3.82       3.56       1.27
C       2.37       7.92       8.25
C       3.15       9.04       8.56
C       4.21       8.92       9.46
C       4.52       7.68      10.05
C       3.73       6.57       9.73
C       2.65       6.68       8.84
C       4.03       5.22      10.31
C      -4.02      12.97       7.00
C      -3.74      12.13       5.78
C      -2.79      11.10       5.91
C      -2.54      10.27       4.82
C      -1.00       8.82       6.02
C      -3.21      10.47       3.61
C      -4.16      11.49       3.48
C      -4.43      12.34       4.57
C      -4.88      11.56       2.16
C       4.27       8.57       0.85
C      -4.40       2.77       3.56
