27

C      11.08       5.69       4.64
C      12.56       5.51       4.68
C      13.11       4.21       4.73
C      13.41       6.63       4.64
C      14.49       4.01       4.74
C      14.78       6.41       4.67
C      15.34       5.12       4.71
C      16.81       5.13       4.69
C      17.69       4.04       4.67
C      17.35       6.43       4.67
C      19.06       4.28       4.63
C      18.71       6.69       4.62
C      19.58       5.58       4.60
C      21.06       5.79       4.53
O      10.37       4.65       4.90
O      10.61       6.84       4.37
O      16.02       8.40       5.93
O      16.07       8.40       3.41
H      12.43       3.36       4.76
H      12.99       7.63       4.59
H      14.89       2.99       4.76
H      17.31       3.02       4.68
H      19.76       3.44       4.60
H      19.11       7.70       4.59
O      21.80       4.74       4.50
O      21.51       6.98       4.51
S      16.05       7.66       4.67
