27

O       5.04       6.55      20.03
O       4.81       8.73      19.44
O      -0.60      10.30      21.06
O      -0.67      10.29      18.55
H       2.99       5.27      19.87
H       2.42       9.53      19.69
H       0.53       4.90      19.89
H      -1.87       4.91      19.81
H      -4.33       5.31      19.75
H      -3.71       9.57      19.76
O      -6.37       6.59      19.64
O      -6.10       8.83      19.71
C       4.33       7.59      19.74
C       2.85       7.41      19.78
C       2.31       6.12      19.85
C       2.00       8.53      19.74
C       0.93       5.91      19.86
C       0.63       8.31      19.79
C       0.08       7.01      19.83
C      -1.39       7.02      19.83
C      -2.26       5.93      19.81
C      -1.94       8.32      19.82
C      -3.63       6.15      19.77
C      -3.30       8.56      19.78
C      -4.16       7.45      19.76
C      -5.64       7.64      19.70
S      -0.64       9.55      19.80
