27

S       8.36      11.55      10.46
O       2.68      14.55      10.23
O       2.90      12.38      10.82
O       8.32      10.80       9.21
O       8.39      10.81      11.72
H       4.73      15.83      10.40
H       5.29      11.57      10.58
H       7.19      16.20      10.38
H       9.59      16.19      10.45
H      12.05      15.78      10.52
H      11.43      11.52      10.50
O      14.09      14.49      10.63
O      13.81      12.25      10.56
C       3.38      13.52      10.52
C       4.86      13.69      10.49
C       5.41      14.99      10.42
C       5.71      12.57      10.52
C       6.79      15.19      10.41
C       7.08      12.79      10.48
C       7.64      14.08      10.43
C       9.11      14.07      10.44
C       9.98      15.17      10.46
C       9.65      12.78      10.45
C      11.35      14.94      10.49
C      11.01      12.53      10.48
C      11.88      13.64      10.51
C      13.36      13.44      10.56
