27

O       7.71      11.73      18.71
O       7.50      11.47      20.92
O      10.03      16.86      17.35
O      12.03      15.33      17.29
H       9.13      13.67      18.03
H       8.73      13.13      22.28
H      10.30      15.03      22.70
H      11.86      16.89      22.74
H      12.80      18.58      18.11
H      13.31      18.89      22.38
O      13.88      20.68      18.89
O      14.45      20.68      21.05
C       7.96      12.12      19.91
C       8.85      13.29      20.14
C       9.40      13.97      19.04
C       9.18      13.67      21.45
C      10.26      15.03      19.29
C      10.06      14.74      21.69
C      10.61      15.43      20.59
C      11.51      16.59      20.62
C      11.81      17.07      19.33
C      12.05      17.25      21.73
C      12.58      18.20      19.11
C      12.85      18.37      21.53
C      13.09      18.86      20.24
C      13.86      20.12      20.05
S      11.03      16.08      18.06
