27

C       8.33       6.72      11.36
C       8.16       6.97      12.80
C       7.54       5.91      13.48
C       8.50       8.13      13.50
C       7.25       5.96      14.83
C       8.19       8.21      14.86
C       7.57       7.14      15.52
C       7.24       7.27      16.97
O       8.13       4.34       6.93
O       8.48       6.48       6.36
O       7.97       3.39      12.70
O       5.73       4.42      12.18
H       7.48       4.07       9.34
O       6.91       6.22      17.62
H       9.16       7.89       8.28
H       9.20       8.57      10.67
H       8.97       8.97      13.00
H       6.77       5.13      15.35
H       8.42       9.11      15.42
O       7.31       8.43      17.50
C       8.33       5.94       8.67
C       8.31       5.56       7.24
S       7.17       4.56      12.36
C       7.86       5.04       9.64
C       8.81       7.21       9.05
C       7.86       5.45      10.96
C       8.84       7.59      10.39
