26

U       6.27       8.43      20.71
U       7.94       9.31      15.68
C       4.35       9.31      22.56
C       7.94       7.12      22.47
C       3.23       9.70      23.44
C       8.88       6.43      23.38
C       8.06      11.39      13.79
C       8.24       7.24      13.90
C       8.26      12.57      12.93
C       8.40       6.11      12.97
C       6.08      10.73      18.22
C       8.19       6.96      18.20
Cl       4.42       7.39      19.33
Cl       9.82      10.25      17.09
O       7.81       7.47      19.31
O       6.51      10.26      19.34
O       7.00       6.46      21.90
O       5.10       8.30      22.84
O       4.59       9.98      21.49
O       8.05       8.40      22.24
O       7.90       7.51      17.07
O       6.30      10.14      17.11
O       9.27       7.71      14.50
O       8.53      10.24      13.48
O       7.40      11.51      14.90
O       7.08       7.76      14.15
