64

La       0.70       2.87      12.12
La       5.71       2.21       5.43
La       4.91       7.30       1.26
La      -0.10       7.96       7.95
P       5.53       0.75       0.70
P       0.87       4.34       7.39
P       0.07       9.42      12.69
P       4.74       5.83       6.00
H       3.94       1.96       0.66
H       6.29       0.02       3.42
H       0.29       0.89       1.98
H       2.46       3.12       7.35
H       0.12       5.07      10.12
H       6.11       4.20       8.67
H       1.67       8.21      12.73
H      -0.68      10.15       9.96
H       5.31       9.28      11.40
H       3.14       7.04       6.03
H       5.49       5.10       3.27
H      -0.50       5.97       4.71
C       6.60       1.28       2.09
C       6.74       2.79       2.18
C       2.38       5.64      13.04
C      -0.20       3.80       8.78
C      -0.34       2.29       8.87
C       2.43       9.61       6.34
C      -1.00       8.88      11.30
C      -1.14       7.38      11.20
C       3.23       4.53       0.35
C       5.81       6.37       4.60
C       5.95       7.88       4.51
C       3.18       0.56       7.04
O       4.13       1.31       1.12
O       6.02       1.34      12.78
O       3.87       9.42       0.78
O       6.00       0.77       3.28
O       0.04       3.38       1.19
O       6.38       3.36       3.25
O       1.40       5.29      12.36
O       2.77       6.82      13.25
O       2.27       3.77       7.82
O       0.39       3.75       6.09
O       0.94       5.83       7.47
O       0.40       4.31       9.97
O       6.37       1.70       7.88
O       0.02       1.73       9.94
O       3.41       9.96       5.67
O       2.04       8.43       6.56
O       1.48       8.85      12.26
O      -0.41       8.83       0.60
O       1.73       0.74      12.61
O      -0.39       9.40      10.11
O       5.57       6.79      12.19
O      -0.78       6.81      10.13
O       4.21       4.87       1.02
O       2.84       3.35       0.13
O       3.33       6.40       5.57
O       5.22       6.42       7.29
O       4.67       4.34       5.92
O       5.21       5.86       3.42
O      -0.76       8.47       5.50
O       5.59       8.44       3.44
O       2.20       0.21       7.72
O       3.56       1.74       6.82
