10

Zn       0.12       6.10       5.67
O       1.64       7.23       5.16
P      -2.61       7.08       4.79
C      -1.05       7.40       8.17
P       1.78       8.69       5.66
P       1.33       3.41       4.80
C      -1.24       5.09       8.04
N      -0.76       6.24       7.54
O       0.66       4.25       5.90
O      -1.26       6.50       4.30
