50

H      11.27       0.89       0.97
H      13.31       0.90       2.41
H      11.05      -1.34       5.33
H       9.12      -1.26       3.77
H      14.47       0.07       4.38
H      12.54      -0.43       6.71
H      17.28      -2.12      10.36
H      15.84      -4.11      10.40
H      13.90      -4.30       8.83
H      13.41      -2.47       7.25
C      11.28       0.39       1.93
C      12.41       0.39       2.74
C      12.35      -0.22       4.00
C      11.15      -0.84       4.37
C      10.07      -0.81       3.50
C      13.52      -0.14       4.87
C      13.49      -0.25       6.21
C      14.68      -0.11       7.07
C      15.00      -1.16       7.95
C      16.13      -1.06       8.84
C      16.41      -2.17       9.71
C      15.61      -3.29       9.72
C      14.51      -3.39       8.83
C      14.23      -2.37       7.96
H      20.34      -0.89      14.91
H      18.31      -0.90      13.47
H      20.57       1.34      10.55
H      22.50       1.26      12.10
H      17.15      -0.07      11.50
H      19.08       0.43       9.16
H      14.34       2.12       5.52
H      15.78       4.11       5.48
H      17.72       4.30       7.04
H      18.21       2.47       8.63
N      10.13      -0.21       2.30
N      21.48       0.21      13.58
C      20.33      -0.39      13.95
C      19.21      -0.39      13.14
C      19.26       0.22      11.87
C      20.47       0.84      11.50
C      21.55       0.81      12.37
C      18.10       0.14      11.01
C      18.12       0.25       9.66
C      16.94       0.11       8.81
C      16.62       1.16       7.92
C      15.48       1.06       7.04
C      15.21       2.17       6.17
C      16.01       3.29       6.16
C      17.11       3.39       7.05
C      17.39       2.37       7.92
