30

C      18.48       7.77       5.80
C      19.04       8.49       6.87
C      18.51       9.70       7.29
C      19.09       6.52       5.39
C      18.59       5.68       4.45
C      19.22       4.50       3.89
C      18.71       3.99       2.68
C      19.36       2.97       2.00
C      20.53       2.42       2.52
C      21.02       2.86       3.77
C      20.37       3.89       4.44
C      21.29       1.42       1.71
O      17.40      12.14       8.04
O      15.80      11.99       6.43
O      20.77       1.07       0.60
O      22.41       1.02       2.17
H      15.94       9.96       5.07
H      16.90       7.81       4.31
H      19.92       8.08       7.37
H      18.94      10.26       8.12
H      20.04       6.28       5.86
H      17.64       5.94       3.97
H      17.81       4.44       2.26
H      18.98       2.60       1.05
H      21.91       2.40       4.19
H      20.77       4.23       5.39
C      16.82      11.55       7.07
C      17.39      10.24       6.64
C      16.81       9.53       5.57
C      17.35       8.32       5.16
