29

H       5.72       7.39      14.48
H       4.43       8.81      12.83
H       1.38       5.76      12.65
H       2.65       4.40      14.34
H       2.40      11.04      12.49
H       1.17      12.42      14.20
H      -1.74       9.31      14.67
H      -0.51       7.89      12.99
S       1.92       8.36      11.53
C       5.10       4.99      15.42
C       4.25       5.83      14.50
C       4.76       7.06      14.08
C       4.05       7.84      13.16
C       2.84       7.35      12.65
C       2.32       6.12      13.07
C       3.03       5.36      14.00
C       1.01       9.40      12.65
C       1.50      10.66      12.98
C       0.82      11.43      13.93
C      -0.35      10.94      14.53
C      -0.83       9.67      14.19
C      -0.15       8.88      13.26
C      -1.14      11.80      15.49
O       6.32       5.26      15.52
O       4.53       4.00      16.03
O       0.96       7.51      10.82
O       2.87       9.20      10.79
O      -0.49      12.82      15.96
O      -2.33      11.51      15.73
