34

H      13.77      24.49      16.83
H      14.90      23.21      15.14
H      12.10      24.87      12.24
H      11.11      26.11      14.06
H      13.04      23.90      10.91
H      13.33      22.16      10.93
H      15.04      21.26      12.64
H      15.82      22.45      13.73
H      16.99      23.52      11.91
H      17.31      21.78      11.91
H      14.51      23.14       9.08
H      15.27      24.39      10.11
H      18.28      20.85      10.57
H      19.59      20.03       8.70
H      17.34      22.15       5.94
H      15.79      22.96       7.68
N      12.37      25.37      15.55
N      14.30      23.22      12.47
N      16.05      22.44      10.34
N      18.51      21.03       7.22
C      13.42      24.54      15.80
C      14.06      23.81      14.83
C      13.64      23.89      13.47
C      12.53      24.74      13.23
C      11.95      25.44      14.27
C      13.80      23.14      11.10
C      15.40      22.30      12.72
C      16.53      22.53      11.72
C      14.93      23.34      10.08
C      16.87      22.00       9.33
C      17.99      21.16       9.57
C      18.75      20.70       8.51
C      17.46      21.85       6.98
C      16.62      22.33       7.97
