29

S      15.86      31.80      22.48
C      19.01      35.14      18.53
C      18.20      34.28      19.46
C      16.96      34.73      19.94
C      16.26      34.00      20.89
C      16.80      32.79      21.35
C      18.02      32.31      20.86
C      18.72      33.06      19.92
C      14.93      30.78      21.37
C      13.76      31.31      20.81
C      13.04      30.53      19.91
C      13.49      29.25      19.56
C      14.68      28.75      20.10
C      15.40      29.51      21.02
C      12.64      28.42      18.66
O      18.37      36.16      18.05
O      20.21      34.86      18.32
O      16.78      30.96      23.24
O      14.89      32.66      23.18
O      11.42      28.69      18.57
O      13.21      27.43      18.05
H      16.58      35.67      19.56
H      15.31      34.36      21.28
H      18.40      31.35      21.21
H      19.67      32.73      19.52
H      13.43      32.31      21.09
H      12.11      30.89      19.47
H      15.02      27.76      19.81
H      16.31      29.13      21.48
