34

H       9.53      24.52      17.26
H       8.35      23.34      19.02
H      11.30      24.93      21.81
H      12.34      26.05      19.92
H      10.61      23.52      23.04
H       9.13      24.41      23.49
H       7.27      22.97      20.55
H       7.06      24.01      21.96
H       7.16      20.88      28.17
H       8.35      22.05      26.42
H       5.39      20.47      23.62
H       4.35      19.35      25.52
H       6.08      21.87      22.39
H       7.56      20.98      21.94
H       9.42      22.43      24.89
H       9.63      21.39      23.47
N       5.70      20.04      26.94
N       7.65      22.04      23.78
N      10.99      25.36      18.50
N       9.04      23.36      21.65
C       9.90      24.58      18.28
C       9.23      23.91      19.29
C       9.69      24.01      20.63
C      10.86      24.79      20.83
C      11.45      25.43      19.76
C       9.51      23.49      23.03
C       7.59      23.12      21.58
C       6.80      20.81      27.15
C       7.46      21.48      26.14
C       7.00      21.38      24.81
C       5.83      20.61      24.60
C       5.24      19.96      25.67
C       7.18      21.91      22.41
C       9.10      22.27      23.85
