34

C       7.40      15.61      15.73
C       6.57      16.08      14.73
C       6.88      15.83      13.37
C       8.05      15.05      13.14
C       8.80      14.59      14.21
C       4.79      16.92      12.54
C       6.45      16.15      10.93
C       3.72      18.79       6.99
C       4.55      18.32       7.98
C       4.24      18.57       9.35
C       3.07      19.35       9.58
C       2.33      19.81       8.51
C       6.33      17.48      10.18
C       4.67      18.25      11.78
N       5.00      18.07      10.37
N       2.62      19.54       7.22
H       7.22      15.84      16.77
H       5.68      16.63      15.03
H       8.39      14.79      12.14
H       9.69      13.99      14.02
H       4.58      17.08      13.60
H       4.03      16.23      12.16
H       7.48      15.80      10.82
H       5.78      15.40      10.49
N       6.12      16.33      12.35
N       8.51      14.86      15.50
H       3.91      18.56       5.94
H       5.44      17.77       7.69
H       2.73      19.61      10.57
H       1.44      20.41       8.70
H       6.54      17.32       9.12
H       7.10      18.17      10.56
H       3.64      18.60      11.89
H       5.35      19.00      12.23
