29

C       8.84      17.94       7.16
C       9.66      17.08       8.09
C      10.90      17.54       8.56
C      11.61      16.82       9.51
C      11.08      15.61       9.97
C       9.87      15.11       9.49
C       9.16      15.86       8.55
C      12.95      13.60      10.01
C      14.12      14.11       9.44
C      14.84      13.32       8.55
C      14.37      12.04       8.21
C      13.18      11.56       8.76
C      12.47      12.33       9.68
C      15.22      11.19       7.32
S      12.04      14.64      11.11
H      11.27      18.49       8.18
H      12.56      17.18       9.90
H       9.50      14.15       9.85
H       8.20      15.52       8.17
H      14.46      15.11       9.71
H      15.77      13.67       8.10
H      12.84      10.56       8.48
H      11.56      11.95      10.14
O       9.48      18.96       6.68
O       7.64      17.66       6.95
O      11.12      13.81      11.90
O      13.00      15.51      11.78
O      16.45      11.43       7.23
O      14.65      10.21       6.70
