20

C      30.49      32.26      15.23
C      30.49      32.80      16.52
C      29.20      33.16      17.18
C      31.70      31.46      13.22
C      31.70      31.99      14.58
C      31.70      33.07      17.17
N      32.83      31.21      12.50
N      32.38      30.79      11.32
H      29.54      32.08      14.72
O      29.27      33.64      18.37
O      28.13      32.98      16.51
H      33.86      32.08      14.73
N      30.58      31.21      12.50
N      31.02      30.79      11.32
H      31.70      33.50      18.17
C      32.92      32.26      15.23
C      32.91      32.80      16.52
C      34.21      33.16      17.19
O      34.14      33.64      18.37
O      35.28      32.98      16.51
