20

C      25.22      29.21       6.62
C      24.01      29.05       5.93
C      22.72      29.41       6.60
O      21.65      29.23       5.92
O      22.79      29.89       7.78
C      26.44      28.51       4.64
C      25.22      28.35       3.95
C      25.23      27.96       2.51
C      27.70      29.15       6.67
C      26.44      28.94       5.97
C      24.01      28.62       4.60
N      27.80      29.60       7.95
N      29.10      29.67       8.18
H      27.37      28.32       4.12
O      24.09      27.82       1.94
O      26.37      27.82       1.95
H      25.22      29.57       7.64
N      28.92      28.95       6.12
N      29.78      29.28       7.07
H      23.07      28.51       4.06
