20

N      39.51      26.05      19.79
N      40.23      25.48      18.84
C      37.89      29.39      19.29
C      37.14      30.36      19.98
C      36.81      31.65      19.31
C      39.07      27.21      19.23
C      38.26      28.20      19.94
C      36.77      30.14      21.31
H      38.19      29.58      18.26
O      36.12      32.49      19.99
O      37.26      31.83      18.12
H      38.20      27.09      21.79
C      37.89      27.99      21.27
C      37.14      28.96      21.96
C      36.81      28.76      23.40
N      39.51      27.35      17.96
N      40.23      26.26      17.73
H      36.20      30.90      21.84
O      36.12      29.68      23.96
O      37.26      27.71      23.96
