20

C      43.18      10.30      15.23
C      43.64      10.04      16.52
C      43.31       8.74      17.18
O      43.75       8.56      18.37
O      42.61       7.90      16.51
C      44.39      12.41      15.23
C      44.85      12.14      16.52
C      45.81      13.08      17.18
C      43.09      11.75      13.21
C      43.55      11.49      14.58
C      44.48      10.95      17.17
N      42.31      10.91      12.50
N      42.17      11.50      11.32
H      44.70      13.32      14.72
O      46.19      12.78      18.37
O      46.19      14.10      16.51
H      42.54       9.58      14.72
N      43.43      12.85      12.50
N      42.85      12.68      11.32
H      44.85      10.74      18.17
