20

N      20.00      23.80      13.42
N      20.59      23.98      14.59
C      20.24      26.34      10.68
C      19.78      26.61       9.38
C      20.11      27.90       8.72
H      20.87      27.06      11.18
C      20.33      24.89      12.69
C      19.87      25.15      11.33
C      18.94      25.69       8.73
H      18.71      23.32      11.18
O      19.66      28.08       7.54
O      20.81      28.74       9.40
C      19.03      24.23      10.68
C      18.56      24.51       9.38
C      17.61      23.57       8.72
O      17.23      23.87       7.53
O      17.23      22.55       9.40
H      18.57      25.91       7.74
N      21.11      25.74      13.40
N      21.27      25.16      14.57
