20

C      20.25      10.30      15.23
O      17.24      12.78      18.37
O      17.24      14.09      16.51
C      20.12       8.74      17.19
C      19.78      10.04      16.52
C      20.34      11.75      13.22
C      19.88      11.49      14.58
C      18.95      10.95      17.17
N      20.00      12.85      12.50
N      20.58      12.68      11.32
H      20.88       9.58      14.73
O      19.67       8.56      18.37
O      20.81       7.90      16.51
N      21.12      10.91      12.50
N      21.26      11.50      11.32
H      18.72      13.32      14.72
H      18.57      10.74      18.17
C      19.04      12.40      15.23
C      18.57      12.13      16.52
C      17.62      13.08      17.18
