20

N      30.59      14.44       0.66
N      31.02      15.69       0.66
C      32.94      11.53       0.57
C      32.93      10.13       0.50
C      34.23       9.38       0.38
C      31.72      13.69       0.65
C      31.73      12.23       0.61
C      31.72       9.43       0.46
H      33.89      12.06       0.58
O      34.16       8.10       0.32
O      35.30      10.08       0.32
H      29.57      12.07       0.58
C      30.51      11.53       0.57
C      30.51      10.13       0.49
C      29.22       9.39       0.38
N      32.83      14.47       0.66
N      32.38      15.71       0.66
H      31.72       8.34       0.39
O      28.15      10.09       0.32
O      29.29       8.11       0.32
