20

N      23.90      27.35      17.96
N      23.18      26.26      17.73
C      25.51      27.99      21.27
C      26.26      28.96      21.96
C      26.59      28.76      23.40
C      24.33      27.21      19.24
C      25.14      28.20      19.94
C      26.63      30.14      21.31
H      25.21      27.08      21.79
O      27.28      29.68      23.97
O      26.14      27.70      23.96
C      25.51      29.39      19.29
C      26.26      30.36      19.98
H      25.21      29.57      18.26
C      26.59      31.65      19.31
O      27.28      32.49      19.99
O      26.14      31.83      18.12
N      23.90      26.05      19.79
N      23.18      25.48      18.84
H      27.20      30.90      21.84
