20

N      35.61      19.28       0.66
N      34.31      19.05       0.66
C      36.99      22.76       0.57
C      38.20      23.46       0.49
C      38.19      24.95       0.38
C      35.72      20.63       0.65
C      36.99      21.36       0.61
C      38.20      20.66       0.57
C      39.41      21.36       0.49
H      36.05      23.31       0.58
C      40.70      20.62       0.38
C      39.41      22.76       0.46
H      38.21      19.57       0.58
O      39.33      25.53       0.32
O      37.05      25.53       0.33
O      41.77      21.32       0.32
O      40.63      19.34       0.33
H      40.35      23.31       0.38
N      34.51      21.23       0.66
N      33.64      20.24       0.66
