20

C      40.70      29.41       6.60
O      39.33      27.82       1.94
O      37.05      27.82       1.94
C      35.71      29.15       6.67
C      36.98      28.94       5.97
C      39.41      28.62       4.60
N      34.49      28.95       6.11
N      33.63      29.28       7.06
H      38.20      29.57       7.64
O      41.77      29.23       5.92
O      40.62      29.89       7.78
N      35.62      29.60       7.95
N      34.31      29.67       8.17
H      36.05      28.32       4.12
H      40.35      28.51       4.07
C      36.98      28.51       4.63
C      38.20      28.35       3.95
C      38.19      27.96       2.51
C      38.20      29.21       6.62
C      39.41      29.05       5.93
