20

C      39.41      15.28      25.41
C      40.69      16.03      25.53
O      41.77      15.33      25.59
O      40.62      17.31      25.58
C      36.98      13.88      25.34
C      38.19      13.18      25.41
C      38.19      11.69      25.53
C      35.71      16.01      25.25
C      36.98      15.28      25.29
C      39.41      13.88      25.45
N      35.61      17.37      25.25
N      34.31      17.61      25.25
H      36.04      13.33      25.33
O      39.33      11.11      25.58
O      37.05      11.12      25.58
H      38.20      17.07      25.33
N      34.49      15.42      25.25
N      33.63      16.43      25.25
H      40.35      13.34      25.52
C      38.19      15.98      25.34
