20

C      25.53       8.66       4.63
C      26.28       7.69       3.95
C      26.61       7.88       2.51
N      23.91       9.30       7.95
C      24.35       9.44       6.67
N      23.19      10.39       8.18
C      26.65       6.50       4.60
C      25.16       8.44       5.97
H      25.23       9.56       4.12
O      27.30       6.97       1.94
O      26.16       8.94       1.94
H      25.23       7.07       7.64
N      23.91      10.59       6.12
N      23.19      11.17       7.06
H      27.22       5.75       4.06
C      25.53       7.25       6.62
C      26.28       6.29       5.93
C      26.61       4.99       6.60
O      27.30       4.15       5.92
O      26.16       4.82       7.78
