20

O      46.19      21.58       5.92
O      46.19      20.26       7.78
C      43.09      16.38       6.67
C      43.55      17.58       5.97
C      44.48      19.84       4.60
N      43.43      16.07       7.95
N      42.85      14.90       8.17
H      42.55      17.07       4.12
O      43.76      20.17       1.94
O      42.62      18.20       1.94
N      42.31      15.42       6.11
N      42.17      14.51       7.06
H      44.70      18.32       7.64
H      44.85      20.71       4.06
C      44.39      18.49       6.62
C      44.85      19.62       5.93
C      45.81      20.56       6.60
C      43.18      17.79       4.63
C      43.64      18.92       3.95
C      43.31      19.12       2.51
