20

O      19.67      20.17       1.94
O      20.81      18.20       1.95
C      19.04      18.49       6.62
C      18.57      19.62       5.93
C      17.62      20.56       6.60
N      21.12      15.42       6.12
C      20.34      16.38       6.67
C      19.88      17.58       5.97
C      18.95      19.84       4.60
N      21.26      14.51       7.07
H      18.72      18.32       7.64
O      17.23      21.58       5.92
O      17.24      20.26       7.78
H      20.88      17.08       4.12
N      20.00      16.07       7.95
N      20.58      14.90       8.18
H      18.57      20.71       4.06
C      20.25      17.79       4.63
C      19.78      18.92       3.95
C      20.12      19.12       2.51
