66

C      18.10       0.28      29.66
C      19.23       0.37      28.80
C      19.81       1.61      28.42
C      20.93       1.66      27.62
C      16.49      -1.02      31.04
C      15.47      -0.06      31.08
H      13.80      -1.10      33.85
O      23.22      -0.66      25.95
O      23.23       1.61      25.94
C      18.15      -2.14      29.52
C      17.58      -0.94      30.04
H      14.89      -5.99      38.00
C       9.72       6.18      33.58
H      13.56      -4.84      36.21
C      10.92       4.40      32.33
C      11.74       3.25      32.26
C      12.11       2.66      31.01
C      12.96       1.58      30.97
C      13.49       1.01      32.16
C      13.10       1.54      33.39
C      12.24       2.66      33.47
C      11.86       3.24      34.71
C      10.58       4.96      33.56
C      11.06       4.36      34.76
C      14.49      -0.08      32.09
C      14.54      -1.09      33.06
H      17.31      -2.76      32.01
H      21.43      -1.68      27.13
H      19.66      -3.01      28.27
H      17.68       1.20      30.06
H      19.35       2.53      28.79
H      21.37       2.61      27.33
H      15.45       0.72      30.33
H      17.71      -3.10      29.79
H      19.18      -5.80      37.92
H      13.48      -3.31      34.26
H      17.78      -3.07      34.24
H      19.10      -4.35      35.88
C      17.05      -6.82      39.30
C      17.03      -5.97      38.07
C      15.80      -5.63      37.52
C      15.72      -4.81      36.37
C      14.48      -4.44      35.78
C      14.44      -3.59      34.70
C      15.63      -3.07      34.13
C      16.86      -3.46      34.65
C      16.94      -4.33      35.77
C      18.18      -4.71      36.35
C      18.23      -5.51      37.47
C      15.55      -2.07      33.04
C      16.52      -2.03      32.02
H      12.23       2.79      35.63
H      11.71       3.08      30.09
H      10.77       4.82      35.71
H      13.23       1.14      30.01
O       9.38       6.66      32.45
O       9.38       6.67      34.72
C      21.52       0.45      27.15
H      13.50       1.12      34.31
C      22.74       0.47      26.29
H      10.55       4.86      31.42
C      20.97      -0.77      27.49
C      19.82      -0.85      28.31
C      19.23      -2.09      28.67
O      15.93      -7.16      39.79
O      18.20      -7.16      39.79
