152

Cr       7.14       2.29       4.72
Cr       5.37       5.34       4.72
Cr       3.72       2.25       4.72
Cr      10.75       4.56      14.10
Cr       9.05       7.65      14.10
Cr      12.48       7.61      14.10
H      12.06       3.48       1.38
H      12.86       9.08       1.45
H       7.80       7.01       1.40
H      12.74       8.79      17.90
H      11.57       3.67      17.83
H       7.86       7.30      17.86
H       4.27       6.53      16.34
H       3.17       0.87      16.21
H       8.30       2.72      16.24
H       2.74       0.20       2.24
H      14.95       7.27       2.36
H       9.40       2.48       2.27
H       5.59       8.23      17.46
H       1.01       1.31      17.23
H       8.99       0.65      17.30
H       0.93       0.97       0.85
H       5.57       8.54       1.07
H       9.60       0.50       0.91
H       3.08       2.75      12.47
H       7.59       1.18      12.25
H       5.80       6.64      12.13
H       8.50       0.91       7.45
H       2.21       1.79       7.73
H       6.34       7.47       7.31
H       1.96       0.72      11.82
H       9.83       1.45      11.39
H       4.93       8.65      11.07
H      10.24       1.30       8.97
H       1.52       0.27       9.41
H       5.09       8.92       8.61
C       7.60       4.72       2.78
C       3.11       4.52       2.79
C       5.56       0.61       2.78
C       8.49       5.43      16.07
C      10.86       9.23      16.08
C      12.88       5.18      16.08
C       7.45       4.74       6.73
C       3.53       4.18       6.80
C       5.61       1.10       6.81
C       8.43       5.39      12.19
C      10.91       9.29      12.18
C      12.98       5.16      12.18
C      13.22       5.05      17.49
C      10.78       9.64      17.48
C       8.15       5.17      17.47
C      10.83       9.81       1.45
C      13.62       4.98       1.47
C       8.22       4.89       1.45
C       3.17       5.91      18.13
C       4.15       0.26      18.06
C       8.34       3.91      18.07
C       4.25       0.18       0.65
C       3.38       5.95       0.72
C       8.64       3.77       0.66
C      12.68       4.18       0.82
C      11.99       9.31       0.86
C       8.06       6.13       0.83
C      11.83       9.23      18.31
C      12.35       4.27      18.27
C       7.94       6.30      18.28
C       4.11       6.67      17.40
C       3.07       0.71      17.27
C       8.48       2.73      17.30
C       2.96       0.39       1.20
C       4.10       7.00       1.32
C       9.11       2.56       1.23
C       4.89       7.63      18.03
C       1.84       0.99      17.85
C       8.85       1.53      17.90
C       1.89       0.77       0.40
C       4.98       7.78       0.58
C       9.30       1.42       0.45
C       2.69       4.95      10.90
C      10.89       9.85      10.83
C       7.67       5.03      10.97
C       5.71       0.48       8.11
C       3.12       4.41       8.18
C       7.67       5.02       8.19
C       2.93       3.64      10.49
C       6.68       0.57      10.34
C       6.82       5.96      10.33
C       6.86       0.65       8.95
C       2.89       3.35       9.11
C       6.88       6.04       8.91
C      13.85       5.72       8.58
C      10.06       9.57       8.56
C       8.34       4.09       8.99
C       9.95       9.31       9.91
C      13.61       5.98       9.93
C       7.77       3.87      10.27
C       2.88       2.59      11.42
C       7.74       0.99      11.20
C       5.95       6.78      11.07
C       8.19       0.91       8.48
C       2.42       2.08       8.74
C       6.23       7.16       8.32
C       2.26       1.41      11.05
C       9.02       1.19      10.72
C       5.38       7.88      10.46
C       9.25       1.11       9.36
C       2.00       1.18       9.71
C       5.51       8.05       9.09
N      13.50       6.71       7.59
N       9.27       8.82       7.62
N       9.76       3.96       8.80
N       9.12       8.24      10.28
N      12.99       7.20      10.24
N       6.46       3.27      10.28
O       6.73       0.89       3.22
O       6.78       5.64       3.22
O       2.77       3.34       3.22
O      12.13       4.26      15.60
O       8.09       6.56      15.60
O      12.01       9.01      15.60
O       7.72       3.55       3.31
O       4.05       5.21       3.31
O       4.52       1.10       3.31
O       9.39       4.69      15.52
O       9.81       8.79      15.52
O      13.04       6.34      15.52
O       6.70       0.91       6.24
O       6.73       5.65       6.24
O       2.75       3.33       6.24
O      12.15       4.25      12.58
O       8.14       6.56      12.58
O      12.06       8.99      12.58
O       7.69       3.58       6.11
O       4.00       5.22       6.11
O       4.49       1.10       6.11
O       9.41       4.68      12.72
O       9.85       8.80      12.72
O      13.08       6.32      12.72
O       5.41       3.29       4.72
O      10.76       6.60      14.10
O      12.56       6.45       6.72
O      14.01       7.90       7.63
O       9.83       7.86       6.95
O       8.09       9.23       7.28
O      10.55       3.83       9.83
O      10.29       4.10       7.62
O       8.04       8.47      10.94
O       9.43       7.03       9.93
O      11.94       7.53       9.57
O      13.67       8.10      10.86
O       5.76       3.21       9.18
O       5.83       3.13      11.41
