960

H      35.26      36.98       1.12
H       2.25      36.39       0.52
H       0.23      34.29       3.53
H      35.35       0.27      36.00
H       0.13       3.35      33.89
H       2.10       1.49      37.08
H       2.56       4.03      35.86
H       3.50      34.97       2.05
H      34.21      35.83       3.12
H      34.47       1.35      33.72
H      20.59       0.30      19.69
H      16.47       0.89      19.09
H      18.48       3.00      22.10
H      20.51      37.01      17.43
H      18.58      33.93      15.32
H      16.61      35.79      18.51
H      16.15      33.25      17.29
H      15.22       2.31      20.62
H      21.64       1.46      21.69
H      21.38      35.94      15.14
H       9.56      25.72      10.60
H      10.51      29.73       9.70
H      12.53      27.71      12.77
H       9.02      25.69       8.38
H       6.19      27.79       6.11
H       8.32      29.79       9.09
H       6.38      30.83       7.90
H      12.58      30.67      10.88
H      10.69      24.93      12.98
H       7.75      24.55       6.61
H       9.15      11.56      29.16
H       8.20       7.55      28.27
H       6.18       9.57      31.34
H       9.70      11.59      26.95
H      12.52       9.50      24.68
H      10.39       7.49      27.66
H      12.34       6.45      26.47
H       6.14       6.61      29.45
H       8.02      12.36      31.54
H      10.97      12.73      25.18
H      27.77      11.22      26.61
H      26.81       7.23      27.59
H      24.72       9.22      24.55
H      28.33      11.26      28.84
H      31.23       9.16      31.04
H      29.04       7.17      28.08
H      31.07       6.16      29.22
H      24.74       6.27      26.49
H      26.59      12.08      24.36
H      29.70      12.43      30.49
H      28.08      26.06       8.04
H      29.04      30.05       9.02
H      31.13      28.06       5.98
H      27.52      26.03      10.27
H      24.63      28.12      12.47
H      26.81      30.11       9.51
H      24.78      31.13      10.66
H      31.11      31.02       7.92
H      29.26      25.21       5.79
H      26.15      24.86      11.92
H      16.71      18.40      19.77
H      20.76      17.57      18.91
H      18.76      15.44      21.92
H      16.73      18.84      17.48
H      18.68      21.89      15.39
H      20.71      19.85      18.44
H      21.63      21.95      17.33
H      21.78      15.56      20.05
H      15.82      17.27      21.96
H      15.91      19.92      15.17
H       2.00      18.88       1.20
H      35.09      19.71       0.34
H      37.09      21.85       3.35
H       1.99      18.45      36.05
H       0.03      15.39      33.96
H      35.14      17.43      37.00
H      34.22      15.33      35.89
H      34.07      21.72       1.48
H       2.89      20.01       3.39
H       2.80      17.36      33.74
H      30.78      29.92       1.41
H      34.33      33.97       5.93
H      32.82      32.53       7.10
H      33.61      32.89       1.37
H      25.08       7.36      19.98
H      21.52       3.31      24.50
H      23.03       4.75      25.67
H      22.24       4.39      19.94
H      16.73      20.90      10.89
H      12.63      24.76      15.09
H      14.12      23.40      16.38
H      13.67      23.63      10.61
H       1.97      16.36      29.46
H       6.10      12.53      33.66
H       4.61      13.89      34.95
H       5.03      13.64      29.18
H      25.47      30.05      17.12
H      21.58      34.01      12.82
H      23.03      32.59      11.56
H      22.61      32.98      17.33
H      30.38       7.23      35.69
H      34.28       3.27      31.39
H      32.83       4.70      30.13
H      33.25       4.30      35.89
H       2.99      20.29       7.67
H       5.46      25.36       3.48
H       3.97      23.93       2.28
H       5.56      23.49       7.84
H      15.73      16.98      26.24
H      13.25      11.93      22.05
H      14.74      13.36      20.85
H      13.16      13.79      26.41
H       7.92       6.52      35.70
H       2.79       3.96      31.63
H       4.13       5.52      30.42
H       4.91       3.74      35.90
H      10.79      30.76      17.13
H      15.92      33.32      13.06
H      14.58      31.77      11.86
H      13.80      33.54      17.33
H      20.34      15.72      26.49
H      24.80      12.44      22.16
H      23.36      13.91      20.93
H      23.43      13.02      26.66
H      35.51      21.56       7.92
H      31.05      24.84       3.59
H      32.49      23.38       2.36
H      32.42      24.26       8.09
H      11.95       7.61      20.00
H      15.64       3.62      24.46
H      14.17       5.08      25.65
H      14.83       4.70      19.90
H       6.76      29.67       1.43
H       3.08      33.66       5.89
H       4.54      32.21       7.08
H       3.88      32.58       1.33
H      34.89      16.17      29.40
H      31.51      11.92      33.86
H      32.92      13.44      35.05
H      32.16      13.11      29.31
H      20.97      21.11      10.83
H      24.34      25.37      15.29
H      22.93      23.85      16.48
H      23.69      24.18      10.75
H      35.26      36.98      13.12
H       2.25      36.39      12.52
H       0.23      34.29      15.53
H      35.35       0.27      10.86
H       0.13       3.35       8.75
H       2.10       1.49      11.94
H       2.56       4.03      10.72
H       3.50      34.97      14.05
H      34.21      35.83      15.12
H      34.47       1.35       8.58
H      20.59       0.30      31.69
H      16.47       0.89      31.09
H      18.48       3.00      34.10
H      20.51      37.01      29.43
H      18.58      33.93      27.32
H      16.61      35.79      30.51
H      16.15      33.25      29.29
H      15.22       2.31      32.62
H      21.64       1.46      33.69
H      21.38      35.94      27.14
H       9.56      25.72      22.59
H      10.51      29.73      21.70
H      12.53      27.71      24.77
H       9.02      25.69      20.38
H       6.19      27.79      18.11
H       8.32      29.79      21.09
H       6.38      30.83      19.90
H      12.58      30.67      22.88
H      10.69      24.93      24.98
H       7.75      24.55      18.61
H       9.15      11.56       4.02
H       8.20       7.55       3.13
H       6.18       9.57       6.20
H       9.70      11.59       1.81
H      12.52       9.50      36.68
H      10.39       7.49       2.52
H      12.34       6.45       1.33
H       6.14       6.61       4.31
H       8.02      12.36       6.40
H      10.97      12.73       0.04
H      27.77      11.22       1.48
H      26.81       7.23       2.45
H      24.72       9.22      36.55
H      28.33      11.26       3.71
H      31.23       9.16       5.90
H      29.04       7.17       2.94
H      31.07       6.16       4.09
H      24.74       6.27       1.35
H      26.59      12.08      36.36
H      29.70      12.43       5.35
H      28.08      26.06      20.04
H      29.04      30.05      21.02
H      31.13      28.06      17.98
H      27.52      26.03      22.27
H      24.63      28.12      24.47
H      26.81      30.11      21.51
H      24.78      31.13      22.66
H      31.11      31.02      19.92
H      29.26      25.21      17.79
H      26.15      24.86      23.92
H      16.71      18.40      31.77
H      20.76      17.57      30.91
H      18.76      15.44      33.92
H      16.73      18.84      29.48
H      18.68      21.89      27.39
H      20.71      19.85      30.44
H      21.63      21.95      29.33
H      21.78      15.56      32.05
H      15.82      17.27      33.96
H      15.91      19.92      27.17
H       2.00      18.88      13.20
H      35.09      19.71      12.34
H      37.09      21.85      15.35
H       1.99      18.45      10.91
H       0.03      15.39       8.82
H      35.14      17.43      11.86
H      34.22      15.33      10.76
H      34.07      21.72      13.48
H       2.89      20.01      15.39
H       2.80      17.36       8.60
H      30.78      29.92      13.41
H      34.33      33.97      17.93
H      32.82      32.53      19.10
H      33.61      32.89      13.37
H      25.08       7.36      31.98
H      21.52       3.31      36.50
H      23.03       4.75       0.53
H      22.24       4.39      31.94
H      16.73      20.90      22.89
H      12.63      24.76      27.09
H      14.12      23.40      28.38
H      13.67      23.63      22.61
H       1.97      16.36       4.33
H       6.10      12.53       8.52
H       4.61      13.89       9.82
H       5.03      13.64       4.04
H      25.47      30.05      29.12
H      21.58      34.01      24.82
H      23.03      32.59      23.56
H      22.61      32.98      29.33
H      30.38       7.23      10.55
H      34.28       3.27       6.25
H      32.83       4.70       4.99
H      33.25       4.30      10.76
H       2.99      20.29      19.67
H       5.46      25.36      15.48
H       3.97      23.93      14.28
H       5.56      23.49      19.84
H      15.73      16.98       1.10
H      13.25      11.93      34.05
H      14.74      13.36      32.85
H      13.16      13.79       1.27
H       7.92       6.52      10.56
H       2.79       3.96       6.49
H       4.13       5.52       5.29
H       4.91       3.74      10.76
H      10.79      30.76      29.13
H      15.92      33.32      25.06
H      14.58      31.77      23.86
H      13.80      33.54      29.33
H      20.34      15.72       1.35
H      24.80      12.44      34.16
H      23.36      13.91      32.93
H      23.43      13.02       1.52
H      35.51      21.56      19.92
H      31.05      24.84      15.59
H      32.49      23.38      14.36
H      32.42      24.26      20.09
H      11.95       7.61      32.00
H      15.64       3.62      36.46
H      14.17       5.08       0.51
H      14.83       4.70      31.90
H       6.76      29.67      13.43
H       3.08      33.66      17.89
H       4.54      32.21      19.08
H       3.88      32.58      13.33
H      34.89      16.17       4.26
H      31.51      11.92       8.72
H      32.92      13.44       9.91
H      32.16      13.11       4.17
H      20.97      21.11      22.83
H      24.34      25.37      27.29
H      22.93      23.85      28.48
H      23.69      24.18      22.75
C       0.18      36.86       0.64
C      36.14      36.52       1.36
C      36.13      35.55       2.39
C       0.23      34.96       2.76
C       1.44      35.27       2.10
C       1.38      36.20       1.03
C       0.17       0.69      36.71
C      36.17       0.87      35.87
C      36.13       1.86      34.86
C       0.14       2.64      34.63
C       1.30       2.48      35.42
C       1.28       1.54      36.47
C       2.37       3.32      35.20
C       2.65      34.68       2.48
C      34.95      35.17       3.01
C      34.98       2.10      34.12
C      18.53       0.42      19.21
C      19.71       0.77      19.92
C      19.72       1.73      20.95
C      18.49       2.32      21.33
C      17.28       2.01      20.67
C      17.33       1.08      19.60
C      18.55      36.59      18.14
C      19.68      36.42      17.30
C      19.73      35.43      16.29
C      18.57      34.65      16.06
C      17.42      34.80      16.85
C      17.43      35.74      17.90
C      16.34      33.96      16.63
C      16.06       2.60      21.05
C      20.90       2.11      21.58
C      20.88      35.18      15.55
C       9.85      27.73       9.97
C      10.11      26.57      10.75
C      11.11      26.54      11.74
C      11.82      27.72      12.03
C      11.58      28.91      11.31
C      10.63      28.88      10.26
C       8.86      27.74       8.91
C       8.52      26.57       8.18
C       7.53      26.55       7.17
C       6.90      27.77       6.84
C       7.21      28.98       7.51
C       8.16      28.93       8.56
C       6.55      30.16       7.19
C      12.29      30.07      11.62
C      11.40      25.38      12.45
C       7.16      25.35       6.55
C       8.86       9.55      28.53
C       8.61      10.72      29.32
C       7.60      10.75      30.31
C       6.90       9.56      30.60
C       7.14       8.37      29.88
C       8.08       8.40      28.83
C       9.86       9.54      27.48
C      10.19      10.72      26.75
C      11.18      10.74      25.74
C      11.81       9.51      25.41
C      11.50       8.31      26.08
C      10.56       8.35      27.13
C      12.16       7.12      25.76
C       6.43       7.21      30.19
C       7.31      11.90      31.02
C      11.56      11.93      25.12
C      27.48       9.22      27.27
C      27.21      10.38      26.48
C      26.18      10.40      25.51
C      25.45       9.22      25.27
C      25.70       8.04      26.00
C      26.68       8.07      27.02
C      28.50       9.22      28.30
C      28.84      10.39      29.03
C      29.85      10.40      30.02
C      30.49       9.18      30.32
C      30.18       7.98      29.64
C      29.22       8.03      28.61
C      30.85       6.80      29.95
C      24.97       6.88      25.74
C      25.87      11.56      24.80
C      30.23      11.60      30.64
C      28.38      28.06       8.70
C      28.64      26.91       7.91
C      29.67      26.88       6.94
C      30.40      28.06       6.70
C      30.15      29.25       7.43
C      29.17      29.21       8.45
C      27.35      28.07       9.73
C      27.01      26.90      10.46
C      26.00      26.88      11.45
C      25.36      28.11      11.75
C      25.67      29.30      11.08
C      26.63      29.26      10.04
C      25.00      30.49      11.38
C      30.88      30.41       7.17
C      29.98      25.73       6.23
C      25.62      25.69      12.07
C      18.74      18.16      19.17
C      17.57      17.87      19.93
C      17.56      16.85      20.91
C      18.76      16.16      21.19
C      19.95      16.44      20.49
C      19.91      17.41      19.46
C      18.72      19.17      18.13
C      17.57      19.41      17.34
C      17.52      20.43      16.36
C      18.70      21.17      16.11
C      19.89      20.95      16.84
C      19.87      19.97      17.87
C      21.03      21.69      16.58
C      21.13      15.75      20.78
C      16.39      16.54      21.61
C      16.38      20.68      15.63
C      37.12      19.13       0.60
C       1.14      19.42       1.36
C       1.16      20.43       2.34
C      37.09      21.12       2.62
C      35.90      20.84       1.92
C      35.94      19.87       0.89
C      37.13      18.11      36.70
C       1.15      17.87      35.91
C       1.19      16.86      34.93
C       0.02      16.11      34.68
C      35.97      16.34      35.41
C      35.98      17.31      36.44
C      34.82      15.59      35.15
C      34.72      21.53       2.21
C       2.32      20.74       3.04
C       2.34      16.61      34.20
C      33.77      33.34       3.98
C      32.96      32.44       3.25
C      32.07      31.58       3.96
C      31.99      31.61       5.38
C      32.81      32.53       6.08
C      33.69      33.38       5.39
C      31.37      30.60       1.90
C      32.24      31.44       1.20
C      22.08       3.94      22.55
C      22.89       4.85      21.82
C      23.78       5.70      22.53
C      23.86       5.67      23.95
C      23.04       4.76      24.65
C      22.16       3.91      23.96
C      24.49       6.68      20.47
C      23.61       5.84      19.77
C      13.23      24.02      13.19
C      14.14      23.16      12.54
C      15.02      22.35      13.32
C      15.00      22.40      14.73
C      14.09      23.28      15.36
C      13.21      24.07      14.60
C      16.03      21.51      11.32
C      15.16      22.29      10.55
C       5.49      13.26      31.77
C       4.56      14.12      31.11
C       3.69      14.93      31.89
C       3.72      14.88      33.31
C       4.63      14.01      33.94
C       5.51      13.21      33.18
C       2.67      15.76      29.90
C       3.54      14.97      29.12
C      22.26      33.41      14.73
C      23.14      32.51      15.41
C      23.99      31.67      14.65
C      23.98      31.69      13.23
C      23.11      32.59      12.58
C      22.26      33.44      13.32
C      24.84      30.71      16.67
C      24.00      31.55      17.42
C      33.59       3.88      33.30
C      32.72       4.77      33.98
C      31.86       5.62      33.22
C      31.88       5.60      31.80
C      32.74       4.69      31.15
C      33.59       3.85      31.89
C      31.01       6.57      35.24
C      31.85       5.73      35.99
C       5.41      24.27       5.30
C       4.81      23.17       5.97
C       3.92      22.32       5.24
C       3.63      22.57       3.87
C       4.22      23.68       3.25
C       5.10      24.52       3.95
C       3.49      21.06       7.22
C       4.36      21.89       7.94
C      13.30      13.01      23.87
C      13.91      14.11      24.53
C      14.79      14.96      23.81
C      15.08      14.72      22.44
C      14.49      13.60      21.81
C      13.61      12.76      22.52
C      15.23      16.21      25.79
C      14.36      15.38      26.51
C       3.85       4.10      33.46
C       4.97       4.71      34.10
C       5.75       5.66      33.37
C       5.47       5.95      32.01
C       4.39       5.29      31.39
C       3.60       4.38      32.10
C       7.13       6.03      35.28
C       6.40       5.07      35.99
C      14.86      33.18      14.90
C      13.74      32.57      15.53
C      12.96      31.62      14.80
C      13.24      31.33      13.44
C      14.32      31.99      12.82
C      15.11      32.90      13.54
C      11.58      31.25      16.71
C      12.31      32.22      17.43
C      24.03      12.91      24.08
C      23.04      13.67      24.76
C      22.19      14.54      24.02
C      22.30      14.65      22.62
C      23.29      13.89      21.95
C      24.15      13.04      22.68
C      21.07      15.16      26.04
C      21.91      14.32      26.77
C      31.82      24.37       5.51
C      32.80      23.61       6.19
C      33.66      22.74       5.45
C      33.55      22.64       4.04
C      32.55      23.39       3.38
C      31.70      24.25       4.11
C      34.78      22.11       7.47
C      33.94      22.96       8.20
C      15.04       4.22      22.51
C      14.20       5.11      21.79
C      13.32       5.97      22.52
C      13.28       5.96      23.94
C      14.13       5.07      24.63
C      15.00       4.22      23.92
C      12.55       6.94      20.47
C      13.42       6.11      19.75
C       3.68      33.06       3.94
C       4.52      32.17       3.22
C       5.39      31.31       3.95
C       5.43      31.32       5.37
C       4.59      32.22       6.06
C       3.72      33.07       5.35
C       6.16      30.34       1.91
C       5.29      31.17       1.18
C      31.91      12.70      31.93
C      32.69      13.65      31.21
C      33.53      14.54      31.93
C      33.61      14.50      33.35
C      32.83      13.54      34.04
C      32.00      12.65      33.34
C      34.29      15.49      29.88
C      33.47      14.61      29.16
C      23.94      24.59      13.36
C      23.17      23.64      12.64
C      22.33      22.74      13.37
C      22.24      22.79      14.78
C      23.02      23.74      15.47
C      23.85      24.64      14.77
C      21.56      21.79      11.31
C      22.38      22.67      10.59
C       0.18      36.86      12.64
C      36.14      36.52      13.36
C      36.13      35.55      14.39
C       0.23      34.96      14.76
C       1.44      35.27      14.10
C       1.38      36.20      13.03
C       0.17       0.69      11.57
C      36.17       0.87      10.73
C      36.13       1.86       9.72
C       0.14       2.64       9.49
C       1.30       2.48      10.28
C       1.28       1.54      11.33
C       2.37       3.32      10.06
C       2.65      34.68      14.48
C      34.95      35.17      15.01
C      34.98       2.10       8.98
C      18.53       0.42      31.21
C      19.71       0.77      31.92
C      19.72       1.73      32.95
C      18.49       2.32      33.33
C      17.28       2.01      32.67
C      17.33       1.08      31.60
C      18.55      36.59      30.14
C      19.68      36.42      29.30
C      19.73      35.43      28.29
C      18.57      34.65      28.06
C      17.42      34.80      28.85
C      17.43      35.74      29.90
C      16.34      33.96      28.63
C      16.06       2.60      33.05
C      20.90       2.11      33.58
C      20.88      35.18      27.55
C       9.85      27.73      21.97
C      10.11      26.57      22.75
C      11.11      26.54      23.74
C      11.82      27.72      24.03
C      11.58      28.91      23.31
C      10.63      28.88      22.26
C       8.86      27.74      20.91
C       8.52      26.57      20.18
C       7.53      26.55      19.17
C       6.90      27.77      18.84
C       7.21      28.98      19.51
C       8.16      28.93      20.56
C       6.55      30.16      19.19
C      12.29      30.07      23.62
C      11.40      25.38      24.45
C       7.16      25.35      18.55
C       8.86       9.55       3.39
C       8.61      10.72       4.18
C       7.60      10.75       5.17
C       6.90       9.56       5.46
C       7.14       8.37       4.74
C       8.08       8.40       3.69
C       9.86       9.54       2.34
C      10.19      10.72       1.61
C      11.18      10.74       0.60
C      11.81       9.51       0.27
C      11.50       8.31       0.94
C      10.56       8.35       1.99
C      12.16       7.12       0.62
C       6.43       7.21       5.05
C       7.31      11.90       5.88
C      11.56      11.93      37.12
C      27.48       9.22       2.13
C      27.21      10.38       1.34
C      26.18      10.40       0.37
C      25.45       9.22       0.13
C      25.70       8.04       0.86
C      26.68       8.07       1.88
C      28.50       9.22       3.16
C      28.84      10.39       3.89
C      29.85      10.40       4.88
C      30.49       9.18       5.18
C      30.18       7.98       4.51
C      29.22       8.03       3.48
C      30.85       6.80       4.81
C      24.97       6.88       0.60
C      25.87      11.56      36.80
C      30.23      11.60       5.50
C      28.38      28.06      20.70
C      28.64      26.91      19.91
C      29.67      26.88      18.94
C      30.40      28.06      18.70
C      30.15      29.25      19.43
C      29.17      29.21      20.45
C      27.35      28.07      21.73
C      27.01      26.90      22.46
C      26.00      26.88      23.45
C      25.36      28.11      23.75
C      25.67      29.30      23.08
C      26.63      29.26      22.04
C      25.00      30.49      23.38
C      30.88      30.41      19.17
C      29.98      25.73      18.23
C      25.62      25.69      24.07
C      18.74      18.16      31.17
C      17.57      17.87      31.93
C      17.56      16.85      32.91
C      18.76      16.16      33.19
C      19.95      16.44      32.49
C      19.91      17.41      31.46
C      18.72      19.17      30.13
C      17.57      19.41      29.34
C      17.52      20.43      28.36
C      18.70      21.17      28.11
C      19.89      20.95      28.84
C      19.87      19.97      29.87
C      21.03      21.69      28.58
C      21.13      15.75      32.78
C      16.39      16.54      33.61
C      16.38      20.68      27.63
C      37.12      19.13      12.60
C       1.14      19.42      13.36
C       1.16      20.43      14.34
C      37.09      21.12      14.62
C      35.90      20.84      13.92
C      35.94      19.87      12.89
C      37.13      18.11      11.56
C       1.15      17.87      10.78
C       1.19      16.86       9.80
C       0.02      16.11       9.54
C      35.97      16.34      10.27
C      35.98      17.31      11.30
C      34.82      15.59      10.01
C      34.72      21.53      14.21
C       2.32      20.74      15.04
C       2.34      16.61       9.06
C      33.77      33.34      15.98
C      32.96      32.44      15.25
C      32.07      31.58      15.96
C      31.99      31.61      17.38
C      32.81      32.53      18.08
C      33.69      33.38      17.39
C      31.37      30.60      13.90
C      32.24      31.44      13.20
C      22.08       3.94      34.55
C      22.89       4.85      33.82
C      23.78       5.70      34.53
C      23.86       5.67      35.95
C      23.04       4.76      36.65
C      22.16       3.91      35.96
C      24.49       6.68      32.47
C      23.61       5.84      31.77
C      13.23      24.02      25.19
C      14.14      23.16      24.54
C      15.02      22.35      25.32
C      15.00      22.40      26.73
C      14.09      23.28      27.36
C      13.21      24.07      26.60
C      16.03      21.51      23.32
C      15.16      22.29      22.55
C       5.49      13.26       6.63
C       4.56      14.12       5.97
C       3.69      14.93       6.75
C       3.72      14.88       8.17
C       4.63      14.01       8.80
C       5.51      13.21       8.04
C       2.67      15.76       4.76
C       3.54      14.97       3.98
C      22.26      33.41      26.73
C      23.14      32.51      27.41
C      23.99      31.67      26.65
C      23.98      31.69      25.23
C      23.11      32.59      24.58
C      22.26      33.44      25.32
C      24.84      30.71      28.67
C      24.00      31.55      29.42
C      33.59       3.88       8.16
C      32.72       4.77       8.84
C      31.86       5.62       8.08
C      31.88       5.60       6.66
C      32.74       4.69       6.01
C      33.59       3.85       6.75
C      31.01       6.57      10.10
C      31.85       5.73      10.85
C       5.41      24.27      17.30
C       4.81      23.17      17.97
C       3.92      22.32      17.24
C       3.63      22.57      15.87
C       4.22      23.68      15.25
C       5.10      24.52      15.95
C       3.49      21.06      19.22
C       4.36      21.89      19.94
C      13.30      13.01      35.87
C      13.91      14.11      36.53
C      14.79      14.96      35.81
C      15.08      14.72      34.44
C      14.49      13.60      33.81
C      13.61      12.76      34.52
C      15.23      16.21       0.65
C      14.36      15.38       1.37
C       3.85       4.10       8.33
C       4.97       4.71       8.96
C       5.75       5.66       8.23
C       5.47       5.95       6.87
C       4.39       5.29       6.25
C       3.60       4.38       6.97
C       7.13       6.03      10.14
C       6.40       5.07      10.86
C      14.86      33.18      26.90
C      13.74      32.57      27.53
C      12.96      31.62      26.80
C      13.24      31.33      25.44
C      14.32      31.99      24.82
C      15.11      32.90      25.54
C      11.58      31.25      28.71
C      12.31      32.22      29.43
C      24.03      12.91      36.08
C      23.04      13.67      36.76
C      22.19      14.54      36.02
C      22.30      14.65      34.62
C      23.29      13.89      33.95
C      24.15      13.04      34.68
C      21.07      15.16       0.90
C      21.91      14.32       1.64
C      31.82      24.37      17.51
C      32.80      23.61      18.19
C      33.66      22.74      17.45
C      33.55      22.64      16.04
C      32.55      23.39      15.38
C      31.70      24.25      16.11
C      34.78      22.11      19.47
C      33.94      22.96      20.20
C      15.04       4.22      34.51
C      14.20       5.11      33.79
C      13.32       5.97      34.52
C      13.28       5.96      35.94
C      14.13       5.07      36.62
C      15.00       4.22      35.92
C      12.55       6.94      32.47
C      13.42       6.11      31.75
C       3.68      33.06      15.94
C       4.52      32.17      15.22
C       5.39      31.31      15.95
C       5.43      31.32      17.37
C       4.59      32.22      18.06
C       3.72      33.07      17.35
C       6.16      30.34      13.91
C       5.29      31.17      13.18
C      31.91      12.70       6.79
C      32.69      13.65       6.07
C      33.53      14.54       6.80
C      33.61      14.50       8.21
C      32.83      13.54       8.90
C      32.00      12.65       8.20
C      34.29      15.49       4.74
C      33.47      14.61       4.02
C      23.94      24.59      25.36
C      23.17      23.64      24.64
C      22.33      22.74      25.37
C      22.24      22.79      26.78
C      23.02      23.74      27.47
C      23.85      24.64      26.77
C      21.56      21.79      23.31
C      22.38      22.67      22.59
N      31.32      30.70       3.25
N      33.01      32.32       1.89
N      34.79      33.95       3.39
N      31.27      30.67       5.98
N      24.54       6.58      21.82
N      22.84       4.96      20.46
N      21.06       3.33      21.96
N      24.58       6.61      24.55
N      15.93      21.57      12.67
N      14.26      23.09      11.17
N      12.63      24.99      12.51
N      15.98      21.89      15.47
N       2.77      15.70      31.25
N       4.45      14.17      29.75
N       6.09      12.29      31.08
N       2.74      15.39      34.04
N      24.80      30.80      15.32
N      23.18      32.41      16.78
N      21.27      33.97      15.40
N      24.65      30.74      12.59
N      31.05       6.48      33.89
N      32.68       4.87      35.34
N      34.59       3.31      33.97
N      31.20       6.55      31.16
N       3.30      21.31       5.90
N       4.98      22.92       7.30
N       6.03      25.26       5.94
N       2.64      21.97       3.22
N      15.42      15.97      24.47
N      13.74      14.36      25.87
N      12.68      12.02      24.51
N      16.07      15.31      21.79
N       6.78       6.28      34.00
N       5.36       4.43      35.39
N       2.94       3.32      34.04
N       6.15       6.93      31.41
N      11.93      31.00      15.43
N      13.35      32.85      16.82
N      15.77      33.96      15.47
N      12.57      30.36      12.84
N      21.24      15.24      24.70
N      22.86      13.59      26.12
N      24.65      11.92      24.71
N      21.36      15.34      21.98
N      34.61      22.04       6.13
N      32.99      23.69       7.55
N      31.21      25.36       6.14
N      34.49      21.94       3.41
N      12.54       6.84      21.82
N      14.22       5.24      20.43
N      16.01       3.50      21.96
N      12.58       6.91      24.56
N       6.17      30.44       3.26
N       4.49      32.04       1.86
N       2.70      33.78       3.39
N       6.13      30.37       5.99
N      34.29      15.42      31.23
N      32.71      13.71      29.84
N      31.31      11.68      31.33
N      34.55      15.23      33.94
N      21.56      21.86      12.66
N      23.15      23.57      11.27
N      24.54      25.61      12.76
N      21.31      22.05      15.37
N      31.32      30.70      15.25
N      33.01      32.32      13.89
N      34.79      33.95      15.39
N      31.27      30.67      17.98
N      24.54       6.58      33.82
N      22.84       4.96      32.46
N      21.06       3.33      33.96
N      24.58       6.61      36.55
N      15.93      21.57      24.67
N      14.26      23.09      23.17
N      12.63      24.99      24.51
N      15.98      21.89      27.47
N       2.77      15.70       6.11
N       4.45      14.17       4.61
N       6.09      12.29       5.95
N       2.74      15.39       8.90
N      24.80      30.80      27.32
N      23.18      32.41      28.78
N      21.27      33.97      27.40
N      24.65      30.74      24.59
N      31.05       6.48       8.75
N      32.68       4.87      10.21
N      34.59       3.31       8.83
N      31.20       6.55       6.02
N       3.30      21.31      17.90
N       4.98      22.92      19.30
N       6.03      25.26      17.94
N       2.64      21.97      15.22
N      15.42      15.97      36.47
N      13.74      14.36       0.73
N      12.68      12.02      36.51
N      16.07      15.31      33.79
N       6.78       6.28       8.86
N       5.36       4.43      10.25
N       2.94       3.32       8.90
N       6.15       6.93       6.27
N      11.93      31.00      27.43
N      13.35      32.85      28.82
N      15.77      33.96      27.47
N      12.57      30.36      24.84
N      21.24      15.24      36.70
N      22.86      13.59       0.98
N      24.65      11.92      36.71
N      21.36      15.34      33.98
N      34.61      22.04      18.13
N      32.99      23.69      19.55
N      31.21      25.36      18.14
N      34.49      21.94      15.41
N      12.54       6.84      33.82
N      14.22       5.24      32.43
N      16.01       3.50      33.96
N      12.58       6.91      36.56
N       6.17      30.44      15.26
N       4.49      32.04      13.86
N       2.70      33.78      15.39
N       6.13      30.37      17.99
N      34.29      15.42       6.09
N      32.71      13.71       4.70
N      31.31      11.68       6.19
N      34.55      15.23       8.80
N      21.56      21.86      24.66
N      23.15      23.57      23.27
N      24.54      25.61      24.76
N      21.31      22.05      27.37
O      32.31      31.36      36.99
O      23.54       5.92      18.42
O      15.24      22.26       9.20
O       3.45      15.00      27.77
O      24.02      31.48      18.77
O      31.83       5.80       0.20
O       4.55      21.68       9.27
O      14.17      15.59      27.84
O       6.75       4.77       0.13
O      11.97      32.51      18.70
O      21.76      14.22      28.12
O      34.09      23.06       9.55
O      13.47       6.20      18.40
O       5.24      31.08      36.97
O      33.46      14.65      27.81
O      22.39      22.63       9.24
O      32.31      31.36      11.85
O      23.54       5.92      30.42
O      15.24      22.26      21.20
O       3.45      15.00       2.63
O      24.02      31.48      30.77
O      31.83       5.80      12.20
O       4.55      21.68      21.27
O      14.17      15.59       2.70
O       6.75       4.77      12.13
O      11.97      32.51      30.70
O      21.76      14.22       2.98
O      34.09      23.06      21.55
O      13.47       6.20      30.40
O       5.24      31.08      11.83
O      33.46      14.65       2.67
O      22.39      22.63      21.24
