276

C       0.01      30.94      58.36
C       0.02       0.15       5.40
C       0.02     -30.33      58.56
C       9.08       0.94       6.13
C       9.10       0.94       7.54
C       0.06       0.13       8.25
C       0.97      -0.65       7.52
C       0.95      -0.65       6.11
C       9.23      29.83      58.82
C       9.25      28.62      58.11
C       0.05      28.49      56.92
C       0.80      29.60      56.48
C       0.78      30.81      57.18
C       9.09     -30.10      57.49
C       9.11     -28.88      56.79
C       0.06     -27.86      57.14
C       0.96     -28.10      58.20
C       0.94     -29.32      58.91
C       0.00     -33.67      60.40
C       0.00      35.45      59.66
C       0.00      34.20      60.33
C       0.00      69.34       0.85
C       0.00       0.22       1.59
C       0.01       1.46       0.91
C       0.01     -31.47      59.19
C       0.01     -32.52      59.77
C       0.02       0.16       4.10
C       0.01       0.19       2.90
C       0.00      33.09      59.65
C       0.01      32.06      59.03
C       9.78      17.35      50.46
C       9.81       8.07      50.09
C       9.74      12.01      42.81
C       0.86       7.24      49.54
C       0.87       5.86      49.81
C       9.84       5.28      50.63
C       8.83       6.10      51.16
C       8.82       7.49      50.90
C       0.57      17.50      51.64
C       0.56      18.72      52.34
C       9.77      19.82      51.87
C       9.00      19.66      50.70
C       9.01      18.44      49.99
C       9.67      12.90      41.72
C       9.73      12.41      40.40
C       9.85      11.02      40.15
C       9.93      10.14      41.25
C       9.87      10.62      42.56
C       9.70      12.75      46.51
C       9.72      13.99      47.19
C       9.73      14.02      48.61
C       9.73      12.81      49.34
C       9.72      11.57      48.66
C       9.70      11.55      47.25
C       9.70      12.44      44.04
C       9.69      12.68      45.21
C       9.76       9.33      49.75
C       9.73      10.44      49.31
C       9.75      15.17      49.24
C       9.77      16.21      49.82
C       9.79       0.09      21.13
C       9.82       4.41      29.36
C       9.74      -3.87      29.59
C       0.86       4.35      30.35
C       0.87       5.27      31.41
C       9.85       6.27      31.51
C       8.83       6.32      30.52
C       8.82       5.40      29.46
C       0.57       1.05      20.42
C       0.56       1.05      19.01
C       9.79       0.07      18.29
C       9.04      -0.88      19.02
C       9.05      -0.88      20.42
C       9.66      -5.26      29.36
C       9.72      -6.16      30.44
C       9.86      -5.68      31.77
C       9.95      -4.29      31.98
C       9.88      -3.39      30.91
C       9.70      -1.03      27.09
C       9.73      -1.06      25.68
C       9.75       0.15      24.94
C       9.75       1.39      25.63
C       9.72       1.42      27.04
C       9.70       0.21      27.77
C       9.71      -3.02      28.60
C       9.70      -2.12      27.80
C       9.77       3.49      28.44
C       9.74       2.55      27.70
C       9.77       0.12      23.64
C       9.78       0.10      22.44
C       9.79     -16.67      50.75
C       9.82     -11.71      42.89
C       9.74      -7.38      49.95
C       0.86     -10.83      42.45
C       0.87     -10.37      41.12
C       9.85     -10.79      40.20
C       8.83     -11.66      40.65
C       8.82     -12.13      41.98
C       0.57     -17.78      50.27
C       0.56     -19.00      50.98
C       9.78     -19.14      52.18
C       9.03     -18.03      52.64
C       9.04     -16.81      51.94
C       9.67      -6.88      51.26
C       9.72      -5.49      51.50
C       9.86      -4.58      50.42
C       9.94      -5.09      49.11
C       9.88      -6.47      48.87
C       9.70     -10.96      48.73
C       9.73     -12.17      49.46
C       9.74     -13.41      48.79
C       9.74     -13.44      47.37
C       9.72     -12.23      46.64
C       9.70     -11.00      47.32
C       9.71      -8.66      49.70
C       9.70      -9.79      49.32
C       9.76     -12.05      44.15
C       9.74     -12.22      45.33
C       9.77     -14.53      49.47
C       9.78     -15.55      50.08
C       1.26      23.64      54.39
C       0.98      24.84      55.08
C       9.60      25.24      55.33
C       8.57      24.41      54.84
C       8.85      23.22      54.14
C       0.22      22.81      53.91
C       0.53      21.59      53.30
C       9.29      26.37      56.08
C       1.25       0.43      13.71
C       0.96       0.40      12.33
C       9.59       0.31      11.87
C       8.56       0.22      12.84
C       8.85       0.24      14.21
C       0.22       0.35      14.68
C       0.53       0.45      16.03
C       9.26       0.35      10.51
C       1.25     -23.27      54.17
C       0.96     -24.45      54.88
C       9.59     -24.82      55.18
C       8.56     -23.94      54.77
C       8.85     -22.75      54.06
C       0.22     -22.40      53.74
C       0.53     -21.28      52.98
C       9.27     -26.01      55.82
C       8.86       9.87      35.68
C       9.12       9.06      34.55
C       0.42       8.44      34.38
C       1.42       8.67      35.36
C       1.15       9.47      36.49
C       9.85      10.08      36.66
C       9.58      10.86      37.77
C       0.71       7.61      33.30
C       8.86      -8.98      35.00
C       9.12      -9.54      36.27
C       0.42      -9.38      36.89
C       1.42      -8.65      36.20
C       1.16      -8.08      34.94
C       9.85      -8.23      34.33
C       9.59      -7.66      33.09
C       0.71      -9.91      38.15
C       8.86      -0.13      51.66
C       9.12       1.24      51.52
C       0.42       1.71      51.07
C       1.42       0.74      50.78
C       1.16      -0.63      50.91
C       9.85      -1.09      51.35
C       9.59      -2.45      51.47
C       0.71       3.06      50.89
H       1.66      -1.23       8.00
H       1.63      -1.23       5.60
H       8.44       1.54       8.04
H       1.34      31.60      56.83
H       8.68      29.89      59.68
H       8.73      27.82      58.48
H       1.38      29.52      55.63
H       8.42     -30.82      57.20
H       1.64     -27.38      58.47
H       1.61     -29.46      59.67
H       8.46     -28.75      56.01
H       0.00      68.44       1.34
H       0.00      35.47      58.64
H       0.01       2.34       1.45
H       8.40       1.54       5.65
H       8.09       5.70      51.74
H       8.06       8.06      51.29
H       1.59       5.29      49.36
H       8.44      18.36      49.14
H       1.12      16.72      52.01
H       1.09      18.79      53.21
H       8.43      20.43      50.35
H       9.59      13.91      41.87
H       0.08       9.13      41.09
H       9.93       9.95      43.34
H       9.70      13.07      39.62
H       9.75      12.83      50.37
H       9.72      14.86      46.66
H       9.69      10.64      46.76
H       1.58       7.63      48.92
H       8.09       7.02      30.59
H       8.06       5.45      28.77
H       1.59       5.17      32.13
H       8.49      -1.59      20.92
H       1.11       1.77      20.90
H       1.08       1.77      18.51
H       8.48      -1.58      18.52
H       9.58      -5.63      28.41
H       0.10      -3.92      32.93
H       9.95      -2.38      31.10
H       9.69      -7.16      30.26
H       9.76       2.27      25.10
H       9.73      -1.96      25.19
H       9.69       0.24      28.79
H       1.58       3.61      30.32
H       8.09     -11.96      40.02
H       8.06     -12.75      42.28
H       1.59      -9.69      40.84
H       8.49     -16.03      52.30
H       1.11     -17.72      49.40
H       1.08     -19.79      50.60
H       8.48     -18.11      53.49
H       9.58      -7.52      52.06
H       0.09      -4.45      48.32
H       9.94      -6.81      47.90
H       9.69      -5.15      52.46
H       9.76     -14.34      46.88
H       9.73     -12.14      50.49
H       9.69     -10.12      46.79
H       1.58     -10.48      43.10
H       7.59      24.66      55.00
H       1.76      25.39      55.44
H       2.24      23.38      54.26
H       8.07      22.64      53.83
H       1.43      21.20      53.47
H       8.40      26.42      56.50
H       7.58       0.17      12.55
H       1.74       0.48      11.67
H       2.23       0.52      14.00
H       8.07       0.21      14.87
H       1.41       0.84      16.29
H       8.33       0.57      10.26
H       7.58     -24.16      54.96
H       1.74     -25.07      55.14
H       2.23     -23.06      53.95
H       8.07     -22.17      53.76
H       1.41     -21.24      52.52
H       8.33     -26.35      55.75
H       2.34       8.24      35.28
H       8.38       8.93      33.87
H       7.94      10.30      35.77
H       1.90       9.61      37.17
H       9.04      11.69      37.67
H       1.66       7.37      33.12
H       2.34      -8.51      36.61
H       8.38     -10.07      36.73
H       7.94      -9.10      34.59
H       1.90      -7.55      34.48
H       9.03      -8.16      32.44
H       1.66      -9.94      38.44
H       2.34       1.03      50.45
H       8.38       1.90      51.75
H       7.94      -0.43      51.98
H       1.90      -1.30      50.69
H       9.03      -2.76      52.23
H       1.66       3.33      50.77
N       0.16       0.12       9.58
N       0.16     -26.70      56.49
N       0.15      27.35      56.23
N       9.76       3.96      50.84
N       0.01      10.49      38.94
N       9.67      20.98      52.52
N       9.76       7.11      32.54
N       0.02      -6.46      32.83
N       9.69       0.05      16.96
N       9.76     -10.32      38.96
N       0.02      -3.27      50.57
N       9.69     -20.28      52.86
