480

H      25.28      30.87      49.16
H      27.05      28.07      46.64
H      20.29       0.85      51.12
H      21.20      30.18      47.51
H      22.42      28.92      45.72
H      23.63      28.53      51.08
H       5.67       0.37      49.20
H       3.94       3.18      46.65
H      10.62      30.28      51.14
H       9.76       1.01      47.54
H       8.57       2.30      45.77
H       7.36       2.69      51.13
H      30.83       5.73      21.02
H      28.01       3.99      18.49
H       0.94      10.65      22.95
H      30.18       9.82      19.37
H      28.91       8.61      17.58
H      28.50       7.41      22.94
H       0.31      25.35      21.02
H       3.13      27.09      18.50
H      30.28      20.33      22.96
H       0.99      21.26      19.37
H       2.28      22.46      17.61
H       2.59      23.68      22.98
H      25.40       0.30       6.86
H      27.05       3.18       9.38
H      20.55      30.04       4.90
H      21.29       0.85       8.48
H      22.45       2.15      10.27
H      23.69       2.58       4.92
H       5.81      30.87       6.82
H       3.94      28.08       9.28
H      10.89       0.73       4.95
H       9.85      30.08       8.54
H       8.57      28.83      10.29
H       7.45      28.53       4.89
H      30.70      25.41      34.98
H      27.84      27.11      37.48
H       0.85      20.45      33.05
H      30.07      21.31      36.62
H      28.78      22.50      38.39
H      28.44      23.71      33.02
H       0.19       5.80      34.97
H       2.95       3.99      37.49
H      30.23      10.78      33.02
H       0.90       9.87      36.64
H       2.14       8.63      38.43
H       2.55       7.45      33.06
H      29.28      26.31      39.56
H      25.82      23.98      39.01
H      28.12      29.27      42.93
H      29.24      28.10      41.18
H      26.33      29.39      44.54
H      23.84      26.04      45.09
H       1.68       4.69      39.59
H       4.99       7.22      39.06
H       2.98       1.78      42.95
H       1.81       2.90      41.20
H       4.77       1.76      44.58
H       7.06       5.24      45.14
H      26.27       1.71      11.46
H      23.91       5.15      10.90
H      29.25       2.93      14.79
H      28.07       1.78      13.07
H      29.36       4.73      16.40
H      25.99       7.18      16.96
H       4.58      29.31      11.40
H       7.17      26.03      10.90
H       1.70      28.01      14.78
H       2.80      29.18      13.01
H       1.71      26.25      16.43
H       5.21      23.98      16.99
H       3.07       0.92      46.00
H       3.05       1.08      50.20
H      29.91      30.93      44.78
H       1.05       0.36      44.79
H      27.89      30.37      45.99
H      27.92      30.14      50.18
H       0.84      27.94      17.84
H       1.05      27.98      22.04
H      30.83       1.09      16.63
H       0.26      29.95      16.63
H      30.28       3.12      17.83
H      30.12       3.11      22.03
H       3.28      30.57       9.93
H       3.05      29.96       5.78
H      30.15       0.64      11.22
H       1.30       0.06      11.18
H      28.08       1.08      10.06
H      27.92       0.88       5.86
H       0.58       3.23      38.13
H       0.98       3.12      33.95
H      30.54      30.08      39.36
H      -0.04       1.22      39.35
H      30.03      28.04      38.16
H      30.04      27.99      33.96
H      18.90      31.15      46.95
H      18.51      30.59      51.12
H      14.26       0.11      45.62
H      16.67       0.04      45.61
H      12.03       0.12      46.98
H      12.46       0.42      51.16
H      31.02      12.10      18.81
H      30.85      12.52      23.00
H      31.05      16.74      17.45
H      30.99      14.33      17.46
H      -0.04      18.97      18.80
H       0.63      18.57      22.95
H      19.04       0.17       9.03
H      18.59      31.01       4.84
H      14.42       0.27      10.40
H      16.83       0.32      10.38
H      12.18       0.08       9.08
H      12.53      30.15       5.02
H      30.98      19.03      37.19
H      30.68      18.62      33.00
H      31.04      14.39      38.54
H      30.98      16.80      38.54
H      -0.06      12.16      37.19
H       0.49      12.57      33.03
H      24.45      31.11       3.23
H      20.24       0.21       2.97
H      25.60       0.03      54.93
H      25.75      31.17       1.05
H      24.28       0.03      52.76
H      20.10      30.71      53.04
H       6.85       0.05       3.28
H      11.04      30.71       2.99
H       5.37       0.11      55.00
H       5.53       0.07       1.12
H       6.67       0.06      52.82
H      10.87       0.39      53.07
H      31.06       6.78      31.39
H       0.34      10.97      31.08
H      31.09       5.43      26.82
H      31.07       5.45      29.23
H      -0.04       6.72      24.64
H      30.79      10.92      24.88
H      31.08      24.40      31.35
H      30.74      20.20      31.11
H      31.06      25.67      26.76
H      31.05      25.70      29.17
H      31.07      24.34      24.60
H       0.36      20.15      24.91
C      23.87      29.61      48.16
C      25.18      30.10      48.50
C      26.36      29.54      47.96
C      26.20      28.47      47.06
C      24.96      28.23      46.42
C      23.78      28.75      47.02
C      22.75      30.06      48.96
C      22.93      30.14      50.38
C      22.05      30.89      51.19
C      20.91       0.26      50.56
C      20.45      30.96      49.31
C      21.44      30.38      48.47
C       7.09       1.62      48.21
C       5.78       1.15      48.54
C       4.61       1.71      47.98
C       4.78       2.78      47.08
C       6.04       3.02      46.47
C       7.20       2.47      47.07
C       8.21       1.15      49.00
C       8.03       1.06      50.42
C       8.90       0.30      51.23
C      10.02      30.90      50.59
C      10.50       0.21      49.34
C       9.51       0.81      48.51
C      29.58       7.15      20.02
C      30.05       5.84      20.36
C      29.49       4.67      19.81
C      28.42       4.83      18.91
C      28.19       6.08      18.28
C      28.73       7.25      18.88
C      30.05       8.27      20.82
C      30.13       8.08      22.23
C      30.90       8.95      23.04
C       0.31      10.07      22.41
C      30.99      10.55      21.17
C      30.38       9.57      20.33
C       1.56      23.93      20.04
C       1.09      25.24      20.37
C       1.65      26.41      19.83
C       2.73      26.24      18.93
C       2.98      24.99      18.32
C       2.43      23.82      18.91
C       1.08      22.81      20.83
C       0.98      22.99      22.24
C       0.23      22.10      23.05
C      30.87      20.96      22.41
C       0.19      20.51      21.16
C       0.77      21.50      20.33
C      23.95       1.51       7.84
C      25.27       1.07       7.52
C      26.43       1.66       8.08
C      26.22       2.74       8.96
C      24.96       2.94       9.58
C      23.81       2.36       8.98
C      22.85       1.02       7.03
C      23.05       0.94       5.62
C      22.21       0.14       4.81
C      21.10      30.71       5.44
C      20.59       0.02       6.67
C      21.55       0.65       7.51
C       7.17      29.57       7.83
C       5.88      30.08       7.48
C       4.68      29.53       7.98
C       4.80      28.46       8.89
C       6.03      28.19       9.54
C       7.23      28.70       8.97
C       8.31      30.02       7.06
C       8.16      30.12       5.64
C       9.07      30.85       4.85
C      10.23       0.17       5.50
C      10.64      30.85       6.76
C       9.62      30.30       7.58
C      29.46      23.97      35.95
C      29.92      25.29      35.63
C      29.34      26.46      36.17
C      28.26      26.27      37.06
C      28.04      25.02      37.68
C      28.60      23.86      37.09
C      29.95      22.86      35.16
C      30.05      23.05      33.75
C      30.83      22.18      32.95
C       0.22      21.05      33.59
C      30.90      20.58      34.83
C      30.28      21.56      35.66
C       1.46       7.19      35.98
C       0.96       5.89      35.63
C       1.50       4.71      36.17
C       2.56       4.85      37.08
C       2.82       6.09      37.72
C       2.31       7.27      37.12
C       1.01       8.32      35.18
C       0.94       8.14      33.76
C       0.19       9.02      32.95
C      30.82      10.16      33.58
C       0.12      10.62      34.83
C       0.70       9.63      35.67
C      27.63      25.08      39.06
C      26.40      24.61      39.57
C      26.54      26.06      41.48
C      27.78      26.56      41.00
C      28.38      25.95      39.89
C      25.97      26.66      42.64
C      24.50      26.59      44.54
C      25.03      27.80      45.06
C      25.93      28.50      44.22
C      26.52      27.88      43.11
C      27.70      28.42      42.55
C      28.37      27.71      41.56
C       3.25       6.00      39.08
C       4.45       6.55      39.61
C       4.40       5.07      41.51
C       3.19       4.51      41.02
C       2.56       5.09      39.91
C       5.00       4.50      42.66
C       6.44       4.65      44.58
C       5.98       3.42      45.09
C       5.12       2.67      44.26
C       4.51       3.26      43.14
C       3.36       2.66      42.58
C       2.66       3.33      41.58
C      25.02       3.34      10.95
C      24.54       4.57      11.46
C      26.01       4.46      13.36
C      26.51       3.22      12.89
C      25.90       2.61      11.78
C      26.61       5.05      14.51
C      26.54       6.52      16.41
C      27.76       6.01      16.91
C      28.47       5.11      16.08
C      27.84       4.51      14.98
C      28.39       3.34      14.42
C      27.67       2.64      13.44
C       5.92      27.75      10.90
C       6.49      26.57      11.44
C       5.00      26.61      13.34
C       4.42      27.81      12.84
C       4.99      28.43      11.72
C       4.44      26.02      14.50
C       4.61      24.59      16.43
C       3.38      25.05      16.94
C       2.62      25.90      16.10
C       3.19      26.50      14.98
C       2.58      27.63      14.41
C       3.24      28.34      13.40
C       3.31       1.11      48.09
C       2.61       0.88      49.30
C       0.58       0.23      48.14
C       1.26       0.41      46.90
C       2.61       0.80      46.90
C      30.38      31.02      48.14
C      28.36      30.36      49.29
C      27.66      30.15      48.08
C      28.36      30.47      46.89
C      29.71      30.86      46.90
C      30.39      31.06      45.68
C       0.57       0.22      45.68
C       1.05      27.71      19.93
C       0.83      28.42      21.14
C       0.17      30.44      19.99
C       0.33      29.76      18.75
C       0.73      28.41      18.74
C      30.96       0.64      19.98
C      30.32       2.66      21.13
C      30.09       3.36      19.92
C      30.39       2.65      18.73
C      30.78       1.30      18.74
C      30.96       0.62      17.52
C       0.13      30.43      17.53
C       3.40      30.18       7.86
C       2.65      30.27       6.67
C       0.68      31.04       7.84
C       1.41      30.99       9.07
C       2.76      30.60       9.05
C      30.48       0.25       7.87
C      28.40       0.77       6.75
C      27.75       1.10       7.97
C      28.51       0.90       9.15
C      29.86       0.52       9.12
C      30.59       0.44      10.32
C       0.78       0.11      10.29
C       0.88       3.42      36.05
C       0.72       2.70      34.84
C       0.01       0.69      35.99
C       0.12       1.39      37.23
C       0.51       2.74      37.23
C      30.80      30.49      36.00
C      30.21      28.45      34.86
C      29.93      27.77      36.07
C      30.18      28.49      37.26
C      30.57      29.84      37.25
C      30.71      30.55      38.46
C      31.04       0.73      38.45
C      19.01      30.96      49.07
C      18.15      30.79      50.19
C      16.18      31.08      48.92
C      16.92      31.11      47.71
C      18.35      31.07      47.81
C      14.77       0.03      48.92
C      12.80       0.26      50.22
C      11.93       0.17      49.10
C      12.60       0.13      47.83
C      14.02       0.08      47.72
C      14.76       0.07      46.51
C      16.18       0.03      46.51
C      31.04      11.99      20.93
C      30.98      12.86      22.05
C       0.00      14.83      20.76
C      31.09      14.08      19.56
C      31.04      12.66      19.66
C       0.11      16.24      20.75
C       0.42      18.21      22.02
C       0.20      19.07      20.91
C       0.07      18.41      19.65
C       0.04      16.98      19.55
C      31.09      16.25      18.35
C      31.06      14.82      18.35
C      19.15      31.09       6.92
C      18.27      30.98       5.80
C      16.30      30.91       7.13
C      17.06      31.14       8.30
C      18.48       0.03       8.18
C      14.90      30.81       7.15
C      12.91      30.43       5.93
C      12.07      30.79       7.02
C      12.73      31.03       8.25
C      14.16      31.04       8.34
C      14.91       0.11       9.52
C      16.33       0.14       9.51
C      30.93      19.14      35.07
C      30.83      18.27      33.95
C      31.06      16.30      35.23
C      31.01      17.05      36.44
C      30.96      18.47      36.34
C       0.00      14.90      35.24
C       0.29      12.92      33.96
C       0.11      12.06      35.08
C       0.01      12.72      36.34
C      -0.03      14.15      36.44
C      31.06      14.89      37.65
C      31.02      16.31      37.65
C      22.34       0.06       3.38
C      21.17       0.10       2.57
C      22.42      31.12       0.56
C      23.64      31.14       1.28
C      23.58      31.15       2.70
C      22.28      31.08      55.44
C      21.02      30.86      53.44
C      22.18      30.97      52.62
C      23.42      31.11      53.30
C      23.49      31.13      54.71
C      24.71      31.18      55.43
C      24.86      31.14       0.56
C       8.95      30.97       3.42
C      10.11      30.88       2.60
C       8.85      31.14       0.60
C       7.64       0.00       1.33
C       7.71      31.14       2.74
C       8.70       0.08      55.48
C       9.94       0.27      53.47
C       8.78       0.21      52.66
C       7.54       0.12      53.35
C       7.48       0.09      54.76
C       6.26       0.09      55.49
C       6.42       0.06       0.62
C       0.10       8.89      31.52
C       0.20      10.04      30.69
C      -0.01       8.77      28.70
C      -0.05       7.56      29.43
C      -0.03       7.64      30.85
C      31.09       8.76      27.30
C      30.92      10.00      25.28
C      30.98       8.83      24.48
C      31.08       7.59      25.17
C      31.09       7.53      26.58
C      31.10       6.32      27.31
C      31.08       6.34      28.73
C      30.93      22.29      31.51
C      30.87      21.13      30.71
C      31.06      22.36      28.70
C      31.05      23.59      29.41
C      31.02      23.53      30.82
C      -0.03      22.35      27.29
C       0.21      21.08      25.30
C       0.12      22.23      24.48
C      -0.02      23.48      25.15
C      -0.05      23.56      26.56
C      31.07      24.78      27.27
C      31.07      24.80      28.68
N      25.92      25.09      40.75
N      24.96      26.08      43.36
N       4.96       6.09      40.79
N       5.96       5.13      43.39
N      25.02       5.07      12.64
N      26.03       6.05      15.23
N       6.03      26.06      12.62
N       5.08      25.06      15.24
N       1.30       0.46      49.28
N      29.67      30.77      49.28
N       0.42      29.72      21.13
N      30.73       1.36      21.12
N       1.34      30.68       6.70
N      29.71       0.37       6.75
N       0.31       1.39      34.86
N      30.61      29.76      34.87
N      16.82      30.89      50.09
N      14.14       0.15      50.11
N      31.09      14.19      21.94
N       0.33      16.88      21.92
N      16.93      30.87       5.94
N      14.25      30.49       6.01
N      30.94      16.94      34.05
N       0.19      14.26      34.06
N      21.25       0.03       1.23
N      21.10      30.94      54.78
N      10.03      30.99       1.25
N       9.87       0.17      54.81
N       0.11       9.95      29.35
N      31.00       9.93      26.62
N      30.96      21.19      29.37
N       0.11      21.17      26.64
O      22.58      28.37      46.52
O      23.95      29.45      50.97
O       8.41       2.85      46.57
O       7.02       1.77      51.01
O      28.35       8.46      18.38
O      29.42       7.08      22.83
O       2.82      22.62      18.42
O       1.67      24.01      22.84
O      22.59       2.71       9.47
O      24.04       1.67       5.03
O       8.41      28.29       9.49
O       7.14      29.45       5.03
O      28.23      22.65      37.59
O      29.35      24.05      33.15
O       2.70       8.47      37.63
O       1.63       7.12      33.17
