20

H       3.58       3.77      15.97
H       1.48       4.99      19.80
H       3.75       8.92      19.80
H       5.86       7.71      15.97
C       3.37       5.09      17.29
C       2.73       5.47      18.48
C       3.96       7.61      18.48
C       4.61       7.23      17.29
C       4.99       5.58      15.45
C       4.32       5.97      16.68
C       2.35       7.11      20.32
C       3.02       6.73      19.09
O       5.87       6.38      14.90
O       3.05       3.87      16.79
O       2.59       8.27      20.87
O       1.83       4.58      18.98
O       1.47       6.32      20.87
O       4.29       8.82      18.98
O       4.75       4.43      14.90
O       5.51       8.12      16.79
