20

H      -1.47       4.99       7.03
H      -3.58       3.77      10.86
H      -5.85       7.71      10.86
H      -3.74       8.92       7.03
C      -2.72       5.47       8.35
C      -3.36       5.09       9.53
C      -4.60       7.23       9.53
C      -3.95       7.61       8.35
C      -2.33       7.11       6.51
C      -3.01       6.73       7.73
C      -4.98       5.58      11.37
C      -4.31       5.97      10.15
O      -2.58       8.27       5.96
O      -1.82       4.58       7.85
O      -5.86       6.38      11.93
O      -3.04       3.87      10.03
O      -4.74       4.43      11.93
O      -5.49       8.12      10.03
O      -1.45       6.32       5.96
O      -4.27       8.83       7.85
