68

Er      -1.84       6.59       2.31
Er      -1.78       3.73      -2.31
H      -2.38       6.77      -1.02
H      -2.77       8.39      -2.84
H      -2.55      10.88      -2.35
H      -1.93      12.66      -0.72
H      -1.19      13.31       1.55
H      -0.51      12.63       3.89
H      -0.02      10.76       5.51
H      -0.40       8.39       4.77
H      -1.23       3.54       1.02
H      -0.85       1.92       2.84
H      -1.07      -0.56       2.35
H      -1.68      -2.34       0.72
H      -2.43      -3.00      -1.55
H      -3.11      -2.31      -3.89
H      -3.60      -0.44      -5.51
H      -3.22       1.92      -4.77
C      -3.94       4.92       0.19
C      -3.74       7.55       4.07
C      -4.77       8.05       5.02
C      -0.33       4.99       3.97
C       0.41       4.16       4.97
C      -2.28       7.84      -0.83
C      -2.49       8.77      -1.86
C      -2.34      10.12      -1.60
C      -1.94      10.53      -0.31
C      -1.74      11.91       0.04
C      -1.34      12.26       1.29
C      -1.09      11.27       2.30
C      -0.65      11.58       3.61
C      -0.39      10.56       4.50
C      -0.60       9.23       4.10
C      -1.29       9.90       1.99
C      -1.74       9.53       0.67
C       0.32       5.39      -0.19
C       0.12       2.77      -4.07
C       1.15       2.27      -5.02
C      -3.29       5.32      -3.97
C      -4.02       6.16      -4.97
C      -1.34       2.48       0.83
C      -1.13       1.55       1.86
C      -1.27       0.20       1.60
C      -1.67      -0.22       0.31
C      -1.87      -1.59      -0.04
C      -2.28      -1.95      -1.29
C      -2.52      -0.96      -2.30
C      -2.97      -1.27      -3.61
C      -3.23      -0.25      -4.50
C      -3.02       1.09      -4.10
C      -2.32       0.42      -1.99
C      -1.88       0.79      -0.67
N      -1.94       8.20       0.41
N      -1.06       8.90       2.89
N      -1.68       2.11      -0.41
N      -2.56       1.42      -2.89
O      -3.37       5.31       1.26
O      -3.32       4.47      -0.83
O      -3.89       7.77       2.81
O      -2.72       6.91       4.50
O      -1.33       4.49       3.36
O       0.04       6.20       3.77
O      -0.25       5.00      -1.26
O      -0.30       5.84       0.83
O       0.27       2.55      -2.81
O      -0.90       3.41      -4.50
O      -2.28       5.83      -3.36
O      -3.66       4.12      -3.77
