14

Sr       1.42       6.91       8.55
Sr      -1.22       4.80       8.38
O      -2.79       3.48       7.06
O       1.08       4.48       7.46
O       0.56       5.04      10.34
O       2.75       4.96       9.88
C       1.87       3.77       6.75
O       3.00       8.24       9.88
O      -0.87       7.24       9.47
O      -0.36       6.67       6.59
O       3.32       6.75       7.06
C       1.73       4.61      10.58
C       4.19       7.94      10.19
C      -1.53       7.10       6.36
