18

C       9.76       1.65       3.77
C      10.51       1.87       4.92
O       8.33      -1.10       1.86
N      10.81       3.26       5.32
O      11.93      -1.35       7.17
O       8.38       1.11       1.42
O      11.12      -2.84       5.72
O      10.43       4.17       4.57
O      11.41       3.42       6.40
H       9.70      -1.76       3.86
H       9.41       2.49       3.18
H      11.58       1.00       6.59
C       8.68       0.09       2.14
C       9.47       0.33       3.39
C      10.68      -0.50       5.31
C      11.25      -1.62       6.11
C      10.98       0.82       5.70
C       9.93      -0.74       4.16
