18

C       8.23      11.65      11.97
H       4.54      12.17      10.94
H       8.41      10.37      10.25
N       9.64      11.47      12.37
H       7.81      12.94      13.64
O       4.64      10.75       8.95
O       5.67      13.96      14.34
O       6.62       9.76       8.57
O       4.11      13.97      12.75
O      10.35      10.76      11.65
O      10.01      12.03      13.42
C       5.85      10.52       9.25
C       6.41      11.19      10.46
C       6.08      12.63      12.39
C       5.23      13.54      13.20
C       7.41      12.45      12.76
C       5.57      12.02      11.24
C       7.75      11.00      10.83
