18

O      11.68       8.47      14.23
O      10.41      12.57      20.00
O      13.24       8.61      15.81
O       6.88      11.63      16.80
O       7.28      10.42      15.01
N       7.62      10.96      16.07
H      12.71      10.36      17.60
C      10.80      11.28      18.05
H       8.77      12.03      18.24
H       9.52       9.51      14.83
C      11.28      11.96      19.29
C      11.21       9.85      16.13
C      12.10       8.96      15.34
C       9.88      10.01      15.73
C      11.67      10.49      17.29
C       9.46      11.43      17.66
C       9.03      10.79      16.50
O      12.52      11.92      19.57
