9

C       7.05       8.81       1.20
C       7.71       7.53      -0.40
N       8.47       8.65      -0.46
N       6.81       7.60       0.62
H       7.17       5.74      -1.18
N       7.86       6.48      -1.22
H       8.44       6.61      -2.06
N       8.03       9.47       0.60
H       6.52       9.18       2.07
