9

N       3.75       6.45       0.46
N       2.08       7.50      -0.62
H       3.71       8.50       2.06
N       3.13       8.63       1.22
C       2.98       7.57       0.40
N       3.30       5.63      -0.60
H       2.45       9.37       1.18
C       2.33       6.29      -1.20
H       1.79       5.92      -2.07
