26

C       0.93       5.26      10.19
H      -1.26       2.13       9.12
H       1.26       5.04       6.33
H       2.19       7.01      10.04
H      -2.19       0.16       5.41
H       0.29       3.64       5.37
O      -0.26       2.83       3.15
O       0.26       4.34      12.30
H      -2.41       0.35       7.90
O      -1.21       0.81       3.16
O       1.21       6.36      12.30
H       2.41       6.82       7.55
H      -0.29       3.53      10.09
C      -0.36       3.04       7.36
C      -0.78       1.86       3.79
C      -1.69       0.96       5.96
C      -0.28       2.94       5.96
C       0.28       4.23       9.49
C      -1.15       2.09       8.04
C       1.81       6.10       8.11
C       1.15       5.08       7.42
C       1.69       6.21       9.49
C       0.36       4.12       8.09
C      -0.93       1.91       5.27
C       0.78       5.31      11.67
C      -1.81       1.07       7.35
