22

Dy      12.41       3.48       8.76
Dy      12.49      -0.31      12.53
C      15.10       1.52       6.04
C      14.10       2.28       6.87
C      10.51       4.76       7.08
C      10.40       1.31      10.29
C       9.80       1.64      15.25
C      10.80       0.89      14.42
C      14.40      -1.60      14.21
C      14.51       1.85      11.00
O      14.36       3.44       7.26
O      13.03       1.69       7.22
O      10.26       4.57       8.30
O      11.67       4.58       6.63
O      10.92       1.83       9.28
O      11.01       0.69      11.18
O      10.54      -0.28      14.03
O      11.88       1.47      14.07
O      14.64      -1.41      12.99
O      13.24      -1.42      14.65
O      13.99       1.33      12.00
O      13.89       2.48      10.11
