21

Mn      -0.21       5.38       9.41
Mn       6.86       7.47       8.71
Mn       3.33       6.42       9.06
O       3.09       4.79      10.51
O       0.93       4.24      10.79
O       1.27       7.11       9.35
O      -0.69       7.28       8.34
O       0.57       4.40       7.69
O       2.72       5.04       7.46
O       3.56       8.05       7.61
O       5.72       8.60       7.33
O       5.38       5.74       8.76
O       7.34       5.57       9.78
O       6.08       8.45      10.43
O       3.94       7.80      10.66
C       2.16       4.08      10.97
C       0.35       7.81       8.80
C       1.75       4.27       7.25
C       4.49       8.76       7.15
C       6.30       5.04       9.32
C       4.91       8.57      10.87
