44

Pr       3.05      12.77       8.64
Pr       2.35       6.36       3.91
H       1.55      16.02       8.22
H       4.49      11.19      11.44
H       4.37      11.23       5.70
H       3.87       3.13       4.34
H       0.89       7.95       1.10
H       0.99       7.93       6.83
C       3.92      15.00       6.20
C       2.22      16.00       7.36
C       2.08      13.39      11.83
C       3.79      11.86      11.95
C       1.89       9.83       7.33
C       3.61      10.50       5.97
C       0.89      14.00       6.14
C       1.01      14.07      11.04
C       0.90      10.12       8.41
C       1.48       4.13       6.35
C       3.19       3.14       5.19
C       3.29       5.76       0.72
C       1.59       7.29       0.59
C       3.47       9.32       5.21
C       1.75       8.66       6.56
C       4.51       5.13       6.41
C       4.36       5.07       1.52
C       4.47       9.04       4.13
N       3.13      15.02       7.29
N       2.91      12.54      11.20
N       2.80      10.75       7.01
N       2.28       4.11       5.27
N       2.46       6.61       1.34
N       2.56       8.40       5.52
O       0.93      13.20       7.19
O       1.02      13.78       9.75
O       1.00      11.31       8.95
O       4.14       9.30       8.62
O       1.70      14.02       5.22
O       4.30      14.74      11.62
O       4.46       5.91       5.34
O       4.32       5.34       2.80
O       4.38       7.83       3.61
O       1.21       9.86       3.91
O       3.70       5.11       7.33
O       1.08       4.41       0.94
