16

V       4.70       8.93      19.60
V       1.08       9.23      19.69
O       1.48       8.33      17.95
O       5.10       9.83      21.33
O       3.89       7.35      20.58
O       7.51      10.81      18.71
O       3.87       8.18      17.91
O       7.49       9.99      21.37
O       5.14      10.66      18.65
O       1.51       7.50      20.63
O       2.72       9.90      19.89
O       6.35       8.27      19.40
C       2.67       6.93      20.90
C       6.30      11.23      18.38
C       2.65       8.01      17.39
C       6.27      10.15      21.89
