120

Ba       3.21      -0.78      17.19
Ba       0.91       3.17      17.60
Ba       1.48      11.75       5.99
Ba       3.79       7.79       5.58
H       3.79      10.54      19.71
H       3.14       8.40      20.83
H       2.53       8.61      17.97
H       1.89       6.46      19.05
H       3.53      10.43       2.18
H       3.03       7.14      22.92
H       1.90       4.75      22.34
H       2.39       8.06       1.62
H       1.47       5.92      15.08
H       0.78       8.04      13.94
H       0.19       7.91      16.79
H       4.17      10.04      15.68
H       1.19       9.14       9.42
H       0.68       9.31      11.85
H       4.21      11.73      12.37
H       0.04      11.53       9.92
H       0.91       0.42       3.47
H       1.56       2.56       2.35
H       2.16       2.35       5.20
H       2.81       4.50       4.13
H       1.16       0.53      20.99
H       1.67       3.82       0.26
H       2.80       6.21       0.84
H       2.31       2.90      21.55
H       3.23       5.04       8.10
H       3.92       2.92       9.23
H       4.51       3.05       6.38
H       0.53       0.92       7.50
H       3.51       1.82      13.76
H       4.01       1.65      11.32
H       0.49      -0.76      10.80
H       4.66      -0.57      13.26
C       1.43      10.98      18.21
C       0.93       9.73      18.87
C       4.42       9.66      19.61
C       4.00       8.44      20.18
C       1.70       8.56      18.66
C       1.29       7.35      19.20
C       0.15       7.30      19.98
C       0.96       9.44       3.49
C       0.71       9.36       2.02
C       4.22       9.94       1.50
C       3.89       9.81       0.14
C       0.11       5.89      22.49
C       1.24       5.28      23.01
C       1.55       8.60       1.18
C       3.76       5.52      16.59
C       3.25       6.76      15.91
C       2.07       6.81      15.17
C       1.64       8.03      14.60
C       4.01       7.93      16.11
C       3.58       9.14      15.55
C       2.44       9.17      14.78
C       3.26      10.11       8.08
C       3.03      10.22       9.55
C       1.88       9.64      10.09
C       1.55       9.80      11.44
C       2.42      10.56      12.25
C       3.54      11.17      11.72
C       3.87      11.00      10.37
C       3.27      -0.02       4.97
C       3.76       1.23       4.30
C       0.28       1.30       3.56
C       0.70       2.52       3.00
C       2.99       2.40       4.51
C       3.41       3.61       3.98
C       4.54       3.66       3.19
C       3.74       1.52      19.69
C       3.99       1.61      21.16
C       0.48       1.02      21.68
C       0.81       1.16      23.03
C       4.59       5.07       0.68
C       3.46       5.68       0.17
C       3.15       2.36      21.99
C       0.94       5.44       6.59
C       1.45       4.20       7.26
C       2.63       4.15       8.00
C       3.06       2.93       8.58
C       0.69       3.03       7.07
C       1.12       1.82       7.62
C       2.26       1.79       8.40
C       1.44       0.85      15.10
C       1.67       0.74      13.63
C       2.82       1.32      13.09
C       3.14       1.16      11.74
C       2.27       0.40      10.92
C       1.15      -0.21      11.46
C       0.83      -0.04      12.81
S       4.32       5.76      20.76
S       1.97      10.70      13.98
S       0.38       5.20       2.41
S       2.73       0.26       9.20
O       2.54      10.85      17.61
O       0.13      10.12       4.19
O       0.32       4.61      20.14
O       0.75      -2.04      18.27
O       1.95       8.81       3.98
O       2.86       5.83      20.80
O       0.23       5.67      17.17
O       2.42       9.41       7.40
O       2.62      11.85      14.61
O       3.12       4.40      16.56
O       4.23      10.75       7.54
O       0.51      10.62      13.91
O       2.15       0.11       5.57
O       4.57       0.84      18.99
O       4.38       6.35       3.04
O       3.95      13.00       4.91
O       2.75       2.15      19.19
O       1.84       5.13       2.37
O       4.47       5.29       6.01
O       2.28       1.55      15.77
O       2.08      -0.89       8.57
O       1.58       6.56       6.62
O       0.47       0.22      15.63
O       4.19       0.34       9.27
