15

H      -1.02       5.34       3.63
H      -1.69       7.82       7.08
H      -0.91       3.59       7.39
N      -0.94       4.35       5.46
C      -1.08       5.45       4.71
C      -1.32       6.73       5.26
C      -1.47       6.85       6.64
C      -1.35       5.71       7.43
C      -1.04       4.49       6.80
C      -1.39       7.91       4.36
O      -1.15       7.77       3.11
O      -1.66       9.07       4.84
C      -1.58       5.78       8.90
O      -2.17       6.81       9.35
O      -1.22       4.80       9.65
