15

O       2.79       4.70       3.11
C       2.52       7.07       4.66
O       1.57       5.68       9.32
C       2.40       5.79       5.22
C       2.23       5.66       6.59
C       2.25       6.83       7.37
C       2.43       8.06       6.72
C       2.45       4.59       4.35
O       2.17       3.43       4.83
C       2.03       6.76       8.84
H       2.60       7.18       3.57
H       2.10       4.68       7.05
H       2.47       8.97       7.31
N       2.53       8.19       5.39
O       2.31       7.78       9.57
