15

O       1.68       0.68       3.90
H       0.86      -0.88       9.68
H       1.32       1.63       6.21
H       0.96      -2.66       5.92
O       1.12      -1.48       3.67
N       0.92      -1.90       7.85
C       0.93      -0.78       8.59
O       0.68       1.59      10.14
C       1.06       0.51       8.04
C       1.16      -0.52       5.87
C       1.00      -1.75       6.52
C       1.02       1.71       8.91
C       1.33      -0.43       4.39
C       1.20       0.64       6.66
O       1.30       2.87       8.43
