24

Eu       7.84      12.01       7.39
O       9.99      11.39       6.45
Ag       6.02       9.02       9.87
C       7.34      10.92       4.35
C       4.86      13.03       8.26
C       4.06       8.02       7.72
C       8.02      10.04      11.98
C      11.25      11.24       6.43
C       4.88      11.55       8.76
C       9.85      14.97       7.99
C       5.84      10.69      12.47
C       5.35       6.29       8.60
C       7.33      12.45       4.16
C       8.18      13.32      10.57
C       9.57       9.61       9.01
N       6.70       9.99      11.69
N       5.05       7.60       8.55
O       7.49      13.18       5.18
O       7.35      12.80       9.77
O       5.72      13.38       7.41
O       7.21      10.49       5.54
O       5.76      10.81       8.23
O       8.41       9.88       8.56
O       8.97      14.14       7.63
