332

C      16.56       1.20       0.24
C      15.14       1.20       0.31
C      15.07      15.96       0.29
C      16.49      15.89       0.24
C      17.09      14.59       0.18
C      16.32      13.40       0.12
C      14.91      13.52       0.20
C      14.30      14.78       0.28
C      14.42       2.42       0.36
C      15.09       3.64       0.37
C      16.50       3.69       0.31
C      17.22       2.47       0.23
C       0.87      17.14       1.50
C       2.29      17.08       1.44
C       2.25      17.08      33.47
C       0.83      17.14      33.46
C       2.98      17.02      32.27
C       2.32      16.99      31.04
C       0.91      17.03      30.97
C       0.18      17.13      32.19
C       0.27      17.18       2.80
C       1.04      17.20       3.99
C       2.44      17.12       3.88
C       3.06      17.05       2.63
C       0.05      17.16       0.22
C       3.04      17.05       0.17
C      14.34      17.24       0.34
C      15.86      16.52      17.54
C      15.88      15.10      17.62
C       1.12      15.07      17.60
C       1.17      16.49      17.54
C       2.46      17.11      17.48
C       3.66      16.35      17.43
C       3.56      14.94      17.52
C       2.31      14.32      17.61
C      14.67      14.37      17.68
C      13.43      15.03      17.67
C      13.37      16.44      17.61
C      14.58      17.17      17.53
C      17.16       0.87      18.79
C      17.17       2.29      18.72
C      17.18       2.22      16.20
C      17.17       0.80      16.21
C      17.18       2.94      14.99
C      17.20       2.27      13.76
C      17.21       0.86      13.72
C      17.18       0.14      14.94
C      17.11       0.27      20.09
C      17.03       1.05      21.28
C      17.07       2.45      21.16
C      17.15       3.06      19.90
C      17.16       0.03      17.52
C      17.19       3.02      17.44
C      17.13      14.32      17.66
C      16.92       0.50      22.59
C      15.86       0.91      23.44
C      15.89       0.65      24.82
C      16.98      17.25      25.42
C       0.74      16.79      24.56
C       0.71      17.05      23.17
C      17.09      17.12      26.85
C      16.79       0.94      27.71
C      17.04       0.87      29.10
C       0.31      16.98      29.68
C       0.56      15.87      28.83
C       0.31      15.94      27.45
C       0.49       0.06       5.30
C      17.12      16.25       5.94
C      16.93      16.25       7.34
C       0.13       0.03       8.15
C       0.71       1.14       7.49
C       0.89       1.16       6.10
C       0.11      17.25       9.58
C      16.18      17.05      10.30
C      16.13      17.21      11.70
C       0.03       0.26      12.43
C       1.25       0.38      11.72
C       1.28       0.23      10.32
C      17.11       4.98       0.32
C      16.99       5.80       1.47
C      17.17       7.19       1.39
C       0.20       7.83       0.16
C       0.38       7.00      33.58
C       0.20       5.60      33.65
C       0.13       9.26       0.05
C       0.61      10.13       1.07
C       0.35      11.52       1.05
C      16.87      12.09       0.00
C      16.44      11.25      33.50
C      16.70       9.87      33.53
C      12.08      17.04      17.62
C      11.26      16.89      18.77
C       9.87      17.10      18.69
C       9.24       0.17      17.47
C      10.07       0.37      16.34
C      11.47       0.17      16.41
C       7.80       0.13      17.36
C       6.94       0.60      18.39
C       5.55       0.36      18.36
C       4.96      16.91      17.30
C       5.80      16.50      16.24
C       7.19      16.74      16.26
C       7.28       9.20       1.24
C       5.86       9.20       1.31
C       5.80       6.68       1.29
C       7.22       6.61       1.24
C       7.82       5.32       1.18
C       7.04       4.13       1.12
C       5.64       4.25       1.20
C       5.03       5.50       1.28
C       5.15      10.42       1.36
C       5.82      11.64       1.37
C       7.23      11.69       1.31
C       7.94      10.47       1.23
C       8.87       7.86       2.50
C      10.29       7.80       2.44
C      10.25       7.80      34.47
C       8.83       7.86      34.46
C      10.98       7.75      33.27
C      10.32       7.72      32.04
C       8.91       7.76      31.97
C       8.18       7.86      33.19
C       8.27       7.91       3.80
C       9.04       7.93       4.99
C      10.44       7.84       4.88
C      11.06       7.78       3.63
C       8.05       7.89       1.22
C      11.04       7.77       1.17
C       5.06       7.96       1.34
C       6.58       7.25      18.54
C       6.60       5.83      18.62
C       9.12       5.80      18.60
C       9.17       7.22      18.54
C      10.46       7.83      18.48
C      11.66       7.07      18.43
C      11.56       5.67      18.52
C      10.31       5.04      18.61
C       5.39       5.10      18.68
C       4.16       5.76      18.67
C       4.10       7.16      18.61
C       5.31       7.89      18.53
C       7.89       8.87      19.79
C       7.90      10.29      19.72
C       7.90      10.22      17.20
C       7.89       8.80      17.21
C       7.91      10.94      15.99
C       7.92      10.27      14.76
C       7.93       8.86      14.72
C       7.91       8.14      15.94
C       7.84       8.27      21.09
C       7.76       9.05      22.28
C       7.80      10.45      22.16
C       7.87      11.06      20.90
C       7.89       8.03      18.52
C       7.91      11.02      18.44
C       7.85       5.04      18.66
C       7.65       8.50      23.59
C       6.59       8.91      24.44
C       6.62       8.65      25.82
C       7.71       7.97      26.42
C       8.74       7.51      25.56
C       8.71       7.77      24.17
C       7.81       7.85      27.85
C       7.51       8.94      28.71
C       7.76       8.87      30.10
C       8.31       7.71      30.68
C       8.56       6.60      29.83
C       8.31       6.67      28.45
C       8.49       8.06       6.30
C       7.84       6.98       6.94
C       7.65       6.97       8.34
C       8.13       8.03       9.15
C       8.71       9.14       8.49
C       8.89       9.16       7.10
C       8.11       7.98      10.58
C       6.90       7.78      11.30
C       6.86       7.94      12.70
C       8.03       8.26      13.43
C       9.25       8.38      12.72
C       9.28       8.23      11.32
C       7.83      12.98       1.32
C       7.71      13.80       2.47
C       7.89      15.19       2.39
C       8.20      15.83       1.16
C       8.38      15.00       0.03
C       8.20      13.60       0.10
C       8.13      17.26       1.05
C       8.61       0.85       2.07
C       8.35       2.24       2.05
C       7.60       2.82       1.00
C       7.16       1.97      34.50
C       7.43       0.59      34.53
C       2.80       7.76      18.62
C       1.98       7.62      19.77
C       0.59       7.83      19.69
C      17.24       8.17      18.47
C       0.80       8.37      17.34
C       2.20       8.17      17.41
C      15.80       8.13      18.36
C      14.94       8.60      19.39
C      13.55       8.36      19.36
C      12.96       7.63      18.30
C      13.80       7.22      17.24
C      15.19       7.47      17.26
H       3.04      17.11       4.72
H       4.08      17.01       2.59
H       4.00      16.98      32.27
H       2.88      16.94      30.18
H      16.43      17.16      32.15
H      16.52      17.25       2.87
H       0.84      14.51       0.13
H      14.31      12.69       0.19
H      13.28      14.82       0.32
H       0.97       2.50       0.19
H      13.40       2.42       0.41
H      14.54       4.51       0.41
H       3.72       0.63       0.16
H       3.64      16.14       0.16
H      13.65      17.26      34.03
H      13.74      17.24       1.26
H      17.04       3.05      21.99
H      17.16       4.09      19.85
H      17.19       3.96      14.98
H      17.22       2.82      12.90
H      17.20      16.39      14.91
H      17.09      16.53      20.18
H       2.53       0.85      17.42
H       4.40      14.35      17.51
H       2.28      13.29      17.65
H      14.54       0.91      17.48
H      14.68      13.35      17.73
H      12.58      14.47      17.72
H      16.31       3.68      17.43
H       0.81       3.65      17.43
H      17.11      13.63      16.81
H      17.13      13.73      18.58
H       1.57      16.34      24.95
H       1.52      16.79      22.60
H      16.47       1.83      27.32
H      16.91       1.72      29.66
H       1.00      15.03      29.21
H      15.09       1.46      23.06
H       0.54      15.13      26.87
H      15.12       0.99      25.40
H       1.07       1.94       8.04
H       1.41       1.94       5.68
H      15.30      16.92       9.79
H      15.22      17.21      12.17
H       2.10       0.68      12.21
H      16.88      15.41       5.40
H       2.17       0.39       9.84
H      16.53      15.41       7.78
H       0.58       7.41      32.67
H       0.22       5.05      32.79
H       1.11       9.74       1.87
H       0.64      12.09       1.85
H      15.85      11.62      32.75
H      16.65       5.39       2.35
H      16.28       9.29      32.79
H      16.96       7.75       2.23
H       9.67       0.60      15.43
H      12.02       0.21      15.55
H       7.34       1.07      19.21
H       4.99       0.62      19.18
H       5.42      15.93      15.48
H      11.66      16.53      19.64
H       7.76      16.33      15.52
H       9.31      16.88      19.52
H      11.04       7.84       5.72
H      12.08       7.74       3.59
H      12.00       7.71      33.27
H      10.88       7.67      31.18
H       7.16       7.89      33.15
H       7.25       7.97       3.87
H       8.84       5.24       1.13
H       5.04       3.42       1.19
H       4.00       5.55       1.32
H       8.97      10.50       1.19
H       4.12      10.42       1.41
H       5.27      12.51       1.41
H      11.72       8.63       1.16
H      11.64       6.86       1.16
H       4.38       7.99       0.48
H       4.47       7.97       2.26
H       7.77      11.05      22.99
H       7.88      12.09      20.85
H       7.91      11.96      15.98
H       7.94      10.82      13.90
H       7.92       7.12      15.91
H       7.81       7.25      21.18
H      10.53       8.85      18.42
H      12.40       5.08      18.51
H      10.28       4.02      18.65
H       5.27       8.91      18.48
H       5.40       4.08      18.73
H       3.30       5.19      18.72
H       7.04      11.68      18.43
H       8.81      11.65      18.43
H       7.84       4.35      17.81
H       7.85       4.45      19.58
H       9.57       7.06      25.95
H       9.52       7.52      23.60
H       7.20       9.83      28.32
H       7.64       9.72      30.66
H       9.00       5.75      30.21
H       5.81       9.46      24.06
H       8.54       5.85      27.87
H       5.84       8.99      26.40
H       9.07       9.94       9.04
H       9.41       9.94       6.68
H       6.02       7.64      10.79
H       5.95       7.93      13.17
H      10.10       8.68      13.21
H       7.60       6.14       6.40
H      10.17       8.39      10.84
H       7.25       6.14       8.78
H       8.58      15.41      33.67
H       8.22      13.05      33.79
H       9.11       0.47       2.87
H       8.64       2.81       2.85
H       6.58       2.34      33.75
H       7.37      13.39       3.35
H       7.01       0.01      33.79
H       7.69      15.75       3.23
H       0.39       8.60      16.43
H       2.74       8.21      16.55
H      15.34       9.07      20.21
H      12.99       8.62      20.18
H      13.42       6.65      16.48
H       2.38       7.26      20.64
H      15.76       7.06      16.52
H       0.03       7.60      20.52
