12

Cu       2.92       3.13      13.97
N       4.93       3.33      14.19
N       5.75       2.66      13.45
C       1.33       5.53      13.87
C       5.46       4.15      15.18
O       2.90       1.17      13.92
O       2.52       5.04      13.97
C       1.83       0.45      13.77
O       2.88       3.28      12.02
O       2.54       2.93      15.87
C       1.35       2.78      16.36
C       1.81       3.21      11.28
