12

Cu       0.24       2.86      13.67
N      -2.59       3.33      14.19
N      -1.78       2.66      13.45
C       1.33       5.53      13.87
O       0.26       4.81      13.72
C      -2.31       1.84      12.46
C       1.83       0.45      13.77
O       0.63       0.95      13.67
O       0.28       2.71      15.62
O       0.61       3.05      11.77
C       1.35       2.78      16.36
C       1.81       3.21      11.28
