14

Zn      -1.99      12.26       7.06
Zn       0.29      14.05       6.99
O       2.01      14.03       8.34
O      -0.81      15.42       7.92
O      -3.09      11.10       8.25
O      -0.29      12.52       8.45
O      -3.71      12.28       5.71
O      -0.89      10.89       6.13
O       1.39      15.20       5.80
O      -1.41      13.79       5.60
C      -4.19      11.47       8.78
C      -4.36      11.17       5.57
C      -2.09      14.84       5.27
C       2.66      15.14       8.48
