31

Zn      10.79       1.35      22.22
O      10.23      -0.06      23.38
Zn      10.83      -1.49      24.48
O       9.65      -3.13      24.39
O       8.54       0.34      21.25
Zn       8.31      -0.04      23.41
O      11.44      -1.61      26.40
O       6.40      -0.06      23.39
O      12.42       2.14      23.18
O       8.49      -0.47      25.53
Zn       5.80       1.04      24.82
O       8.12       2.09      23.78
Zn       5.84      -1.17      21.95
O       6.99       0.98      26.45
O      12.55       0.19      25.66
O      12.50      -2.28      23.58
O       9.61       3.00      22.32
O      13.64      -3.11      21.86
O       8.13      -2.19      22.98
C      12.29      -0.67      26.56
C       8.60      -3.14      23.67
C      12.33       0.56      20.19
C      12.78      -3.22      22.78
C      12.72       3.10      23.96
C       8.08      -0.36      20.30
C       8.59       3.02      23.07
C       8.02       0.23      26.47
O      12.61      -0.26      21.11
O      11.45       1.47      20.32
O       7.06      -1.11      20.32
O      13.61       2.99      24.87
