294

Ca      -0.20      -5.24      13.45
Ca      11.37      -4.56      14.10
Ca       2.15      -5.83      15.75
Ca       5.40      -5.79      15.25
Ca       8.44      14.69       4.11
Ca      -3.12      14.01       3.46
Ca       6.09      15.28       1.80
Ca       2.84      15.24       2.31
H       5.78       5.03      12.68
H       6.90       3.68      12.80
H       5.14       3.38      12.82
H       6.25       6.06       6.79
H       7.40       6.55       8.03
H       5.71       7.03       8.16
H       5.04       0.46       8.82
H       5.66       1.12       7.29
H       3.99       1.40       7.77
H       7.53       5.86      11.58
H       7.63       6.60       9.98
H       4.58       9.03      12.20
H       5.37      11.34      12.77
H       9.31      10.34      11.41
H       8.54       8.08      10.77
H       4.52       3.04       6.36
H       5.15       4.69       6.18
H       8.59       2.38       4.59
H       8.87       2.57       2.10
H       4.90       4.17       1.79
H       4.61       4.01       4.23
H       5.98       0.58      10.57
H       5.92       1.55      12.05
H       5.90      -0.64      12.41
H       5.29      -2.64      13.70
H       1.11      -1.86      13.01
H       1.71       0.17      11.70
H      12.75       3.13       4.79
H      11.53       2.86       6.05
H      -2.10       2.07       6.14
H      -0.49       8.53       6.80
H      -1.64       8.13       5.52
H       0.04       7.60       5.39
H      -0.77       5.72      10.84
H      -0.75       3.99      10.55
H      -2.29       4.81      10.78
H      -2.87       3.11       9.74
H      11.95       2.35       8.20
H      11.55       1.26      10.26
H      11.29      -0.75      11.69
H       0.05      -2.02      10.69
H       0.34       0.02       9.26
H      12.54       5.11       4.13
H      -1.54       6.48       4.17
H       1.29       3.29       3.04
H       2.07       3.30       0.68
H      -3.36      -4.06      17.22
H      -1.89       6.01       2.00
H      -0.01       7.11       9.94
H       0.19       8.11       8.51
H      -3.64       9.78       9.85
H      -3.81      11.50      11.65
H       0.24      10.62      12.84
H       0.40       8.90      11.07
H       9.55      -5.21      16.25
H       8.36      -4.63      15.12
H       7.02      -3.50      14.93
H       2.46       4.42       4.88
H       1.35       5.77       4.75
H       3.10       6.07       4.74
H       2.00       3.39      10.77
H       0.84       2.90       9.53
H       2.53       2.42       9.40
H       3.20       8.99       8.74
H       2.59       8.33      10.27
H       4.26       8.05       9.78
H       0.72       3.59       5.98
H       0.61       2.85       7.58
H       3.66       0.42       5.36
H       2.87      -1.89       4.79
H      -1.06      -0.89       6.15
H      -0.29       1.37       6.79
H       3.72       6.41      11.20
H       3.10       4.76      11.38
H      -0.35       7.07      12.97
H      -0.62       6.88      15.45
H       3.35       5.28      15.77
H       3.63       5.44      13.32
H       2.26       8.87       6.99
H       2.33       7.90       5.51
H       2.35      10.09       5.15
H       2.96      12.09       3.86
H       7.13      11.31       4.55
H       6.53       9.28       5.86
H      -4.51       6.32      12.77
H      -3.29       6.59      11.50
H      10.35       7.38      11.41
H       8.74       0.92      10.76
H       9.88       1.32      12.03
H       8.20       1.85      12.17
H       9.02       3.73       6.72
H       8.99       5.46       7.01
H      10.53       4.64       6.78
H      11.12       6.34       7.81
H      -3.70       7.10       9.36
H      -3.30       8.19       7.30
H      -3.04      10.20       5.87
H       8.20      11.47       6.87
H       7.90       9.43       8.30
H      -4.30       4.34      13.43
H       9.78       2.97      13.39
H       6.96       6.16      14.52
H       6.17       6.15      16.88
H      11.60      13.51       0.33
H      10.14       3.44      15.56
H       8.25       2.34       7.62
H       8.05       1.34       9.05
H      11.89      -0.33       7.70
H      12.06      -2.05       5.91
H       8.01      -1.17       4.72
H       7.84       0.55       6.49
H      -1.30      14.66       1.31
H      -0.11      14.08       2.43
H       1.23      12.95       2.63
C       6.26       4.99      10.07
C       6.08       4.96       8.67
C       5.62       3.77       8.07
C       5.42       2.60       8.84
C       5.57       2.66      10.24
C       5.92       3.88      10.86
C       5.94       3.99      12.37
C       6.37       6.20       7.87
C       5.01       1.32       8.15
C       6.94       6.16      10.70
C       6.50       8.41      11.45
C       5.61       9.33      12.02
C       6.05      10.61      12.33
C       7.39      10.99      12.12
C       8.27      10.05      11.57
C       7.84       8.77      11.23
C       7.86      12.35      12.48
C       5.37       3.70       6.59
C       6.61       3.22       4.57
C       7.80       2.78       3.96
C       7.95       2.88       2.59
C       6.91       3.40       1.79
C       5.71       3.78       2.40
C       5.55       3.70       3.78
C       7.10       3.58       0.34
C       5.46       1.41      11.06
C       3.84      -0.09      11.97
C       4.85      -0.89      12.53
C       4.51      -2.02      13.27
C       3.16      -2.38      13.46
C       2.16      -1.58      12.87
C       2.49      -0.45      12.14
C       2.82      -3.55      14.26
C      -1.96       4.07       8.06
C      -2.06       4.18       6.66
C      -1.65       5.37       6.03
C      -1.14       6.45       6.80
C      -1.00       6.31       8.20
C      -1.41       5.12       8.83
C      12.61       3.01       5.86
C      -0.78       7.74       6.10
C      -1.29       4.91      10.33
C      -2.47       2.85       8.76
C      -1.62       0.80       9.71
C      -2.83       0.57      10.37
C      12.22      -0.56      11.17
C      -1.95      -1.49      11.31
C      -0.75      -1.28      10.60
C      -0.58      -0.15       9.81
C      -2.13      -2.67      12.20
C      -1.70       5.46       4.53
C      -0.33       4.66       2.68
C       0.79       3.89       2.29
C       1.22       3.91       0.98
C      -1.69      -5.41      17.55
C      -0.59       5.42       0.40
C      -1.02       5.42       1.72
C      -1.22      -5.40      16.18
C      -0.52       7.46       9.04
C      -1.63       9.21      10.36
C      -2.81       9.97      10.52
C      -2.89      10.94      11.51
C      -1.79      11.19      12.37
C      -0.61      10.44      12.18
C      -0.52       9.46      11.18
C       2.82      -7.37      13.45
C       1.99       4.46       7.49
C       2.17       4.49       8.89
C       2.63       5.68       9.49
C       2.83       6.85       8.72
C       2.67       6.79       7.32
C       2.32       5.57       6.70
C       2.31       5.46       5.19
C       1.87       3.25       9.69
C       3.23       8.13       9.41
C       1.30       3.29       6.86
C       1.74       1.04       6.11
C       2.64       0.12       5.54
C       2.19      -1.16       5.23
C       0.86      -1.54       5.44
C      -0.03      -0.60       5.99
C       0.41       0.68       6.33
C       0.38      -2.90       5.08
C       2.88       5.75      10.97
C       1.64       6.23      12.98
C       0.45       6.67      13.59
C       0.30       6.57      14.97
C       1.34       6.05      15.77
C       2.54       5.67      15.16
C       2.70       5.75      13.78
C       1.14       5.87      17.22
C       2.79       8.04       6.50
C       4.41       9.54       5.59
C       3.39      10.34       5.03
C       3.74      11.47       4.29
C       5.08      11.83       4.10
C       6.09      11.03       4.68
C       5.76       9.90       5.41
C       5.43      13.00       3.30
C      10.20       5.38       9.50
C      10.30       5.27      10.90
C       9.89       4.08      11.52
C       9.39       3.00      10.76
C       9.25       3.14       9.36
C       9.65       4.33       8.72
C      -4.36       6.44      11.69
C       9.03       1.71      11.46
C       9.54       4.54       7.23
C      10.71       6.60       8.80
C       9.86       8.65       7.85
C      11.08       8.87       7.18
C      -3.98      10.01       6.39
C      10.19      10.94       6.25
C       9.00      10.73       6.95
C       8.82       9.60       7.75
C      10.38      12.12       5.35
C       9.94       3.99      13.03
C       8.57       4.79      14.88
C       7.46       5.56      15.27
C       7.03       5.54      16.58
C       9.93      14.86       0.01
C       8.84       4.03      17.16
C       9.27       4.03      15.84
C       9.46      14.85       1.38
C       8.76       1.99       8.52
C       9.87       0.24       7.20
C      11.05      -0.52       7.04
C      11.13      -1.49       6.05
C      10.03      -1.74       5.19
C       8.85      -0.99       5.38
C       8.76      -0.01       6.38
C       5.42      16.82       4.11
O       5.98       7.18      11.12
O      11.70      -6.34      12.85
O      -1.37      -6.93      12.43
O       6.57       3.17       5.94
O       6.00      -6.73      17.34
O       3.86      -6.07      17.19
O       4.06       1.05      11.24
O       1.58      -3.92      14.39
O       3.75      -4.22      14.88
O      -1.36       1.91       8.94
O      11.94      -2.80      12.79
O      -1.16      -3.49      12.36
O      -0.64       4.60       4.02
O      -1.90      -4.84      15.22
O      -0.08      -5.96      15.86
O      -1.70       8.24       9.39
O       1.71      -6.72      13.62
O       3.80      -7.17      14.29
O       9.51      -4.80      15.37
O       7.16      -4.46      14.86
O       2.27       2.27       6.43
O      -3.45      15.79       4.71
O       9.61      16.38       5.13
O       1.67       6.28      11.62
O       2.25      16.18       0.22
O       4.38      15.52       0.37
O       4.18       8.40       6.32
O       6.66      13.37       3.17
O       4.50      13.67       2.68
O       9.60       7.54       8.62
O      -3.69      12.25       4.77
O       9.40      12.94       5.20
O       8.88       4.85      13.53
O      10.15      14.29       2.34
O       8.33      15.41       1.70
O       9.94       1.21       8.17
O       6.53      16.17       3.94
O       4.45      16.62       3.27
O      -1.26      14.25       2.19
O       1.09      13.91       2.70
