360

C       9.88      53.15      29.26
C       9.68      53.18      30.66
C       9.50      51.95      31.33
C       0.50      57.01      32.22
C       9.52      56.13      32.82
C       8.73      56.64      33.88
C       9.37      54.80      32.42
C       9.70      50.69      29.22
C       9.88      51.93      28.56
C       9.51      50.73      30.62
C       9.75      49.45      28.50
C       9.82      45.77      29.13
C       0.15      48.16      25.03
C       9.47      45.58      30.49
C       9.51      49.10      24.15
C       0.03      48.26      26.44
C       9.83      47.05      28.51
C       9.42      44.29      31.07
C       9.75      43.15      30.31
C       0.14      43.32      28.95
C       0.18      44.60      28.38
C       0.82      47.05      24.46
C       0.85      46.85      23.07
C       0.20      47.75      22.20
C       9.52      48.89      22.75
C       9.82      40.56      12.14
C       9.70      38.17       7.84
C       0.15      35.81      12.12
C       9.88      36.98       7.09
C       9.88      36.98       5.68
C       9.68      38.17       4.96
C       9.50      39.37       5.69
C       9.51      39.37       7.10
C       9.47      41.83      11.62
C       9.42      42.97      12.45
C       9.75      42.89      13.82
C       0.14      41.63      14.35
C       0.18      40.49      13.52
C       0.82      35.87      13.37
C       0.85      34.77      14.24
C       0.20      33.57      13.89
C       9.51      33.47      12.63
C       9.50      34.58      11.75
C       0.03      36.98      11.33
C       9.83      39.37      11.34
C       9.75      38.17       9.27
C       9.82      28.44      25.15
C       9.70      25.91      29.37
C       0.15      30.80      29.27
C       9.88      25.86      30.77
C       9.88      24.64      31.48
C       9.69      23.42      30.81
C       9.50      23.45      29.41
C       9.51      24.67      28.70
C       9.47      27.36      24.31
C       9.42      27.50      22.90
C       9.75      28.73      22.29
C       0.14      29.82      23.12
C       0.18      29.68      24.51
C       0.82      31.86      28.60
C       0.85      33.16      29.12
C       0.20      33.46      30.33
C       9.52      32.41      31.04
C       9.51      31.10      30.52
C       0.03      29.53      28.65
C       9.83      28.35      26.57
C       9.75      27.15      28.65
C       9.90      -7.74      37.33
C       9.65     -12.66      37.27
C       0.11     -10.12      41.46
C       9.49     -13.89      37.96
C       9.45     -15.12      37.26
C       9.60     -15.17      35.86
C       9.75     -13.94      35.17
C       9.77     -12.72      35.86
C       9.45      -7.54      36.01
C       9.39      -6.25      35.44
C       9.83      -5.12      36.17
C       0.34      -5.32      37.49
C       0.38      -6.60      38.05
C       0.78      -9.01      42.03
C       0.81      -8.82      43.42
C       0.15      -9.71      44.29
C       9.46     -10.84      43.73
C       9.45     -11.05      42.33
C       9.95     -10.22      40.04
C       9.88      -9.02      37.97
C       9.73     -11.41      37.98
C       9.91      -2.56      54.38
C       9.65      -0.16      58.67
C       0.11       2.20      54.38
C       9.49       1.05      59.40
C       9.45       1.06      60.80
C       9.60      -0.13      61.55
C       9.75      -1.34      60.83
C       9.77      -1.35      59.42
C       9.45      -3.81      54.87
C       9.39      -4.95      54.03
C       9.83      -4.88      52.69
C       0.34      -3.64      52.20
C       0.39      -2.51      53.03
C       0.78       2.14      53.13
C       0.81       3.25      52.27
C       0.15       4.44      52.61
C       9.46       4.53      53.87
C       9.45       3.42      54.75
C       9.95       1.02      55.17
C       9.88      -1.37      55.17
C       9.72      -0.17      57.24
C       9.91       9.61      41.37
C       9.65      12.12      37.15
C       0.11       7.23      37.26
C       9.49      12.14      35.74
C       9.45      13.36      35.02
C       9.60      14.60      35.68
C       9.75      14.58      37.09
C       9.77      13.37      37.80
C       9.45      10.66      42.21
C       9.39      10.50      43.61
C       9.83       9.31      44.23
C       0.35       8.26      43.40
C       0.39       8.42      42.00
C       0.78       6.17      37.93
C       0.81       4.87      37.40
C       0.15       4.57      36.20
C       9.46       5.62      35.49
C       9.45       6.93      36.01
C       9.95       8.50      37.88
C       9.88       9.70      39.95
C       9.72      10.88      37.87
C       0.64     -18.64      32.67
C       8.87     -19.01      34.32
C       9.81     -18.13      33.73
C       9.95     -16.80      34.13
C       0.64      -1.16      66.16
C       0.50      37.61       0.86
C       9.51      38.57       1.32
C       8.73      39.23       0.35
C       8.87       0.46      65.64
C       9.80      -0.50      65.18
C       9.95      -0.82      63.83
C       9.37      38.89       2.67
C       0.64      19.10      34.27
C       0.50      20.15      33.34
C       9.52      20.07      32.28
C       8.73      18.90      32.19
C       8.87      17.85      33.12
C       9.81      17.93      34.18
C       9.95      16.91      35.13
C       9.37      21.08      31.33
C       8.72      46.62      17.87
C       8.95      45.77      16.77
C       0.31      45.36      16.42
C       1.38      45.87      17.19
C       1.16      46.72      18.29
C       9.80      47.08      18.67
C       9.56      47.78      19.84
C       0.55      44.36      15.48
C       8.72      30.37      17.03
C       8.95      29.85      18.32
C       0.31      29.76      18.85
C       1.38      30.17      18.03
C       1.16      30.70      16.75
C       9.80      30.84      16.24
C       9.56      31.51      15.04
C       0.55      29.44      20.19
C       8.72      37.77      31.52
C       8.95      39.15      31.33
C       0.31      39.66      31.15
C       1.38      38.74      31.20
C       1.16      37.36      31.39
C       9.80      36.85      31.52
C       9.56      35.48      31.54
C       0.55      40.97      30.75
C       8.72      -8.58      48.63
C       8.96      -7.74      49.73
C       0.33      -7.36      50.08
C       1.39      -7.88      49.30
C       1.15      -8.71      48.19
C       9.78      -9.06      47.82
C       9.52      -9.74      46.64
C       0.61      -6.38      51.03
C       8.72       7.63      49.46
C       8.97       8.17      48.18
C       0.33       8.28      47.68
C       1.40       7.87      48.52
C       1.15       7.33      49.80
C       9.78       7.18      50.28
C       9.52       6.50      51.46
C       0.61       8.62      46.35
C       8.72       0.25      35.00
C       8.96      -1.13      35.17
C       0.33      -1.62      35.33
C       1.40      -0.68      35.27
C       1.15       0.69      35.10
C       9.78       1.18      34.99
C       9.52       2.55      34.99
C       0.61      -2.94      35.70
H       9.38      51.93      32.34
H       0.08      54.02      28.74
H       8.03      56.05      34.34
H       1.11      56.68      31.46
H       8.95      54.16      33.05
H       9.39      49.87      31.16
H       0.09      51.96      27.54
H       9.22      46.39      31.07
H       9.13      44.19      32.05
H       9.04      49.56      22.14
H       9.00      49.91      24.52
H       0.44      44.66      27.39
H       0.34      42.51      28.36
H       1.28      46.35      25.05
H       1.31      46.02      22.70
H       9.38      40.26       5.20
H       9.39      40.26       7.58
H       0.08      36.09       5.19
H       0.44      39.61      13.97
H       9.22      41.93      10.63
H       9.14      43.87      12.04
H       0.34      41.52      15.34
H       1.28      36.73      13.68
H       9.04      32.61      12.36
H       9.00      34.50      10.86
H       1.31      34.86      15.15
H       0.09      36.08       7.57
H       9.38      22.58      28.88
H       9.39      24.64      27.69
H       0.08      24.66      32.49
H       0.44      30.50      25.06
H       9.22      26.45      24.72
H       9.14      26.70      22.33
H       0.34      30.74      22.71
H       1.28      31.69      27.70
H       9.04      32.60      31.92
H       9.00      30.37      31.04
H       1.31      33.89      28.58
H       0.09      26.72      31.31
H       9.84     -13.93      34.15
H       9.90     -11.86      35.32
H       9.34     -15.98      37.80
H       0.72      -6.68      39.02
H       9.10      -8.33      35.45
H       9.02      -6.13      34.50
H       0.62      -4.52      38.07
H       1.25      -8.32      41.44
H       8.97     -11.51      44.34
H       8.94     -11.85      41.96
H       1.28      -7.99      43.79
H       9.39     -13.91      38.97
H       9.84      -2.23      61.33
H       9.90      -2.26      58.96
H       9.33       1.96      61.29
H       0.73      -1.64      52.62
H       9.10      -3.90      55.83
H       9.02      -5.83      54.40
H       0.62      -3.54      51.22
H       1.26       1.29      52.83
H       8.97       5.38      54.14
H       8.94       3.49      55.63
H       1.29       3.16      51.37
H       9.39       1.94      58.91
H       9.84      15.46      37.61
H       9.90      13.42      38.82
H       9.33      13.33      34.01
H       0.73       7.62      41.46
H       9.10      11.53      41.80
H       9.01      11.26      44.19
H       0.63       7.37      43.80
H       1.25       6.34      38.82
H       8.97       5.43      34.61
H       8.94       7.66      35.50
H       1.28       4.14      37.93
H       9.39      11.27      35.21
H       1.34     -18.05      32.20
H       8.26     -18.68      35.08
H       0.45     -16.17      33.51
H       8.03      39.93       0.63
H       1.11      37.12       1.52
H       1.34      -1.86      65.87
H       8.26       0.95      64.98
H       0.45      -1.67      63.59
H       8.95      39.76       2.91
H       8.03      18.79      31.45
H       1.11      20.97      33.43
H       1.34      19.20      35.01
H       8.26      17.03      33.03
H       0.45      17.13      35.99
H       8.95      20.86      30.46
H       2.35      45.58      16.99
H       8.14      45.40      16.27
H       7.76      46.85      18.13
H       1.97      47.02      18.84
H       8.83      48.45      19.89
H       1.42      43.87      15.55
H       2.35      30.15      18.38
H       8.14      29.59      18.89
H       7.76      30.48      16.70
H       1.96      31.04      16.21
H       8.83      31.20      14.44
H       1.42      29.75      20.58
H       2.35      39.06      31.05
H       8.13      39.77      31.26
H       7.76      37.43      31.58
H       1.97      36.73      31.37
H       8.83      35.11      32.10
H       1.42      41.16      30.29
H       2.36      -7.61      49.49
H       8.16      -7.36      50.25
H       7.74      -8.79      48.38
H       1.94      -9.03      47.63
H       8.78     -10.41      46.61
H       1.50      -5.94      51.00
H       2.37       7.92      48.20
H       8.16       8.41      47.59
H       7.74       7.51      49.76
H       1.95       7.01      50.36
H       8.77       6.79      52.05
H       1.50       8.37      45.99
H       2.36      -0.99      35.41
H       8.16      -1.76      35.24
H       7.74       0.57      34.95
H       1.94       1.34      35.11
H       8.78       2.91      34.43
H       1.50      -3.13      36.11
N       9.73      54.38      31.26
N       0.00      47.11      27.16
N       9.74      48.24      29.16
N       9.87      49.42      27.14
N       0.22      47.42      20.91
N       9.63      41.92      30.82
N       0.00      38.18      11.96
N       9.74      39.34       9.98
N       9.87      37.01       9.97
N       0.21      32.62      14.82
N       9.64      43.95      14.63
N       9.73      38.09       3.62
N       0.00      29.48      27.30
N       9.74      27.18      27.28
N       9.87      28.34      29.31
N       0.22      34.74      30.69
N       9.63      28.90      20.97
N       9.73      22.30      31.54
N       0.02      -9.08      39.32
N       9.76     -10.22      37.32
N       9.82     -11.38      39.35
N       0.18      -9.39      45.57
N       9.69      -3.89      35.68
N       9.56     -16.37      35.28
N       0.02      -0.18      54.55
N       9.76      -1.34      56.53
N       9.82       1.00      56.53
N       0.18       5.40      51.69
N       9.69      -5.92      51.87
N       9.56      -0.04      62.88
N       0.02       8.56      39.23
N       9.76      10.86      39.24
N       9.81       9.68      37.22
N       0.17       3.30      35.83
N       9.69       9.11      45.54
N       9.56      15.70      34.93
