20

C       0.54       9.55       0.72
C       2.95       9.37       0.80
C       2.98       9.36      -0.60
C      -0.55      10.45      -0.82
C      -0.62      10.50       0.68
O       0.55       8.93      -3.17
O       0.53      10.50       3.17
C       1.69      10.22       2.75
C       1.72       9.16      -2.72
C       1.79       9.51      -1.33
C       1.73       9.59       1.46
C       0.59       9.52      -0.64
H       3.88       9.37       1.35
H       3.93       9.31      -1.11
H      -1.44       9.97      -1.29
H      -0.36      11.49       1.08
H      -0.23      11.41      -1.28
H      -1.55      10.04       1.09
O       2.76      10.71       3.27
O       2.78       8.72      -3.27
