36

O       8.27       0.92       6.05
O       8.24      -1.30      12.63
O       9.69       0.68      12.14
O      10.06      -0.64       6.69
C       9.33      -1.73       6.14
C       8.79       1.73      12.43
C       7.23      -0.18      10.73
C       7.33      -0.27       7.91
C       9.65       0.26      10.80
C       9.82      -0.40       8.04
C      10.87       0.07      10.19
C      10.96      -0.24       8.84
C       8.54      -0.24       8.65
C       8.47      -0.05      10.07
C       6.12      -0.47       8.59
C       6.05      -0.17       9.96
C       4.95      -0.82       7.90
C       4.78       0.09      10.51
C       3.72      -0.55       8.44
C       3.63      -0.12       9.76
C       7.21       0.42       6.59
C       7.17      -0.82      12.07
H       2.85      -0.72       7.84
H      11.75       0.24      10.78
H      11.92      -0.32       8.38
H       4.66       0.48      11.51
H       4.99      -1.24       6.90
H       2.68       0.06      10.20
H       8.29       2.18      11.55
H       9.34       2.52      12.97
H       8.02       1.38      13.14
H       8.66      -2.26       6.86
H      10.04      -2.45       5.70
H       8.72      -1.38       5.29
O       6.04       0.71       6.17
O       6.01      -1.09      12.52
