22

C       5.17       4.59       2.77
O       5.03       3.42       3.30
O       5.97       5.48       3.20
C       4.13       5.36      -2.74
O       2.78       3.17      -1.23
O       2.84       3.28       1.44
O       3.22       4.66      -3.30
C       4.78       4.78       1.38
C       5.72       5.45       0.58
C       5.59       5.52      -0.78
C       3.72       3.99      -0.66
C       3.78       4.02       0.74
C       6.21       6.85       0.68
C       6.07       6.93      -0.82
C       4.55       4.88      -1.43
H       7.26       6.91       1.03
H       5.50       7.52       1.23
H       5.29       7.64      -1.14
H       7.03       7.02      -1.35
H       3.20       2.74      -2.02
H       2.77       3.65       2.36
O       4.52       6.51      -3.17
