234

Ni      11.48       7.33       9.89
Ni       6.67       2.37      14.06
Ni       2.28       6.83       6.08
Ni       7.09      11.78       1.91
Ni      12.43       1.58      11.99
Ni       1.34      12.58       3.98
H      13.43       9.03      11.43
H      -0.13       3.72      13.75
H       9.92      13.26      14.94
H      10.05       3.46      13.16
H      11.58      11.11      11.62
H       9.20       9.03      14.55
H       5.29       9.80       0.18
H       5.32      14.03       0.31
H       3.37      13.03      14.32
H      13.69       4.86      10.87
H       0.68       4.85       0.01
H       1.58       5.68      12.29
H      11.93       7.55      14.63
H      10.58       5.69      14.72
H      -0.08       9.92      13.26
H       4.73       8.79      13.78
H       3.24       7.26      12.52
H       1.42      11.44      14.51
H       5.02       0.38      12.53
H       9.95      14.08      10.23
H       0.69       3.77       9.03
H      10.49       3.90      10.81
H       2.89       2.17      12.35
H       4.89       4.61       9.41
H       4.21       8.69       7.80
H      -0.01       8.54       7.67
H       0.75      10.33       9.63
H       9.19       0.23      13.09
H       9.03      13.43       7.97
H       8.03      12.32      11.67
H       6.46       1.92       9.33
H       8.28       3.31       9.23
H       3.75      13.87      10.69
H       5.03       9.08      10.18
H       6.51      10.62      11.44
H       2.28      12.32       9.44
H       0.33       5.13       4.55
H      13.89      10.44       2.23
H       3.84       0.90       1.03
H       3.71      10.70       2.81
H       2.18       3.05       4.36
H       4.57       5.12       1.43
H       8.47       4.35      15.79
H       8.44       0.12      15.66
H      10.39       1.13       1.65
H       0.07       9.30       5.10
H      13.08       9.31      15.96
H      12.18       8.47       3.68
H       1.83       6.61       1.34
H       3.18       8.47       1.25
H      13.84       4.23       2.71
H       9.03       5.37       2.20
H      10.52       6.90       3.46
H      12.34       2.72       1.46
H       8.74      13.78       3.44
H       3.82       0.08       5.74
H      13.08      10.39       6.94
H       3.27      10.26       5.16
H      10.87      11.99       3.62
H       8.87       9.55       6.56
H       9.55       5.47       8.17
H      13.78       5.62       8.30
H      13.01       3.83       6.34
H       4.57      13.93       2.88
H       4.73       0.72       8.00
H       5.73       1.83       4.30
H       7.30      12.24       6.65
H       5.48      10.85       6.74
H      10.01       0.29       5.28
H       8.74       5.07       5.79
H       7.25       3.53       4.53
H      11.48       1.84       6.53
C      13.80       8.01      11.48
C      11.39      13.60      12.73
C       8.67      11.40       0.01
C      13.16       3.94      13.80
C       1.48       8.49      12.80
C      10.07      12.32      14.41
C      10.85      12.31      13.25
C      11.00       3.85      13.51
C       3.17      10.21      14.21
C       9.45      11.15      14.86
C      11.02      11.11      12.55
C      10.45       9.92      13.03
C       9.67       9.95      14.19
C       4.88      10.65      15.95
C       5.03      13.03       0.03
C       3.98      12.46      15.01
C      13.31       5.99      15.23
C      10.64       8.64      12.28
C      13.98       5.85      11.20
C       0.12       5.68      15.96
C       0.74       6.25      11.91
C      12.81       7.30      15.24
C      11.24       4.94      14.31
C       0.98       9.68      13.35
C       3.68       9.03      13.67
C       2.84       8.17      12.96
C       1.82      10.54      14.05
C       6.05       0.04      12.47
C       0.39       2.29      11.24
C       2.70       5.26       7.98
C      10.10       0.78      10.17
C       5.22      12.34      11.15
C       1.63       3.65       9.55
C       1.66       2.87      10.72
C      10.13       2.95      10.46
C       3.56      10.61       9.74
C       2.78       4.30       9.10
C       2.87       2.73      11.41
C       4.04       3.33      10.93
C       4.00       4.11       9.77
C       3.17       8.89       8.01
C       0.98       8.85       7.96
C       1.34       9.74       8.94
C       8.05       0.58       8.72
C       5.33       3.18      11.68
C       8.20      -0.08      12.76
C       8.00      13.78       7.99
C       7.45      13.15      12.05
C       6.73       1.05       8.72
C       9.05       2.68       9.65
C       4.02      12.82      10.61
C       4.76      10.13      10.29
C       5.59      11.00      11.00
C       3.19      11.95       9.91
C      -0.03       6.15       4.49
C       2.37       0.55       3.24
C       5.09       2.76      15.96
C       0.60      10.22       2.17
C      12.28       5.66       3.17
C       3.69       1.83       1.56
C       2.91       1.84       2.72
C       2.76      10.31       2.46
C      10.59       3.95       1.76
C       4.31       3.00       1.11
C       2.74       3.04       3.42
C       3.31       4.23       2.94
C       4.09       4.21       1.79
C       8.89       3.51       0.02
C       8.73       1.13      15.95
C       9.79       1.70       0.96
C       0.46       8.17       0.74
C       3.13       5.52       3.70
C      -0.22       8.30       4.77
C      13.65       8.48       0.01
C      13.02       7.91       4.06
C       0.96       6.86       0.73
C       2.53       9.22       1.66
C      12.78       4.47       2.62
C      10.08       5.13       2.30
C      10.93       5.99       3.01
C      11.94       3.62       1.92
C       7.72      14.11       3.50
C      13.38      11.87       4.73
C      11.06       8.89       7.99
C       3.66      13.38       5.80
C       8.54       1.81       4.82
C      12.13      10.51       6.42
C      12.10      11.29       5.25
C       3.64      11.21       5.52
C      10.20       3.55       6.23
C      10.98       9.86       6.87
C      10.90      11.43       4.56
C       9.72      10.83       5.04
C       9.77      10.05       6.20
C      10.59       5.27       7.97
C      12.78       5.30       8.01
C      12.42       4.42       7.03
C       5.71      13.58       7.25
C       8.43      10.97       4.29
C       5.56      14.24       3.21
C       5.76       0.37       7.98
C       6.31       1.01       3.92
C       7.03      13.11       7.25
C       4.71      11.48       6.32
C       9.74       1.34       5.36
C       9.01       4.02       5.68
C       8.17       3.16       4.97
C      10.57       2.21       6.07
N      12.20       3.24      13.18
N      12.61       4.99      14.50
N       5.58      11.89       0.61
N       4.00      11.06      14.98
N      13.19       6.96      10.94
N       0.61       7.63      12.09
N      10.76       1.76      10.79
N       9.04       1.30       9.47
N       2.13       8.35       7.37
N       2.73       9.75       8.97
N       7.08       0.68      13.02
N       6.07      13.24      11.86
N       1.56      10.91       2.79
N       1.15       9.17       1.48
N       8.19       2.27      15.36
N       9.76       3.09       0.99
N       0.58       7.19       5.03
N      13.15       6.53       3.88
N       3.00      12.40       5.18
N       4.72      12.86       6.51
N      11.63       5.81       8.60
N      11.03       4.41       7.00
N       6.69      13.48       2.96
N       7.69       0.92       4.11
O      11.58       0.32      13.43
O      11.98      13.67      11.60
O       8.42      12.55       0.53
O       8.07      10.35       0.41
O      10.46       7.53      12.84
O      10.98       8.83      11.04
O      13.66       2.47      10.54
O       0.34       1.70      12.37
O       1.54       5.49       7.45
O       3.73       5.89       7.58
O       6.43       3.39      11.12
O       5.15       2.83      12.92
O       2.18      13.84       2.54
O       1.78       0.49       4.37
O       5.34       1.60      15.44
O       5.69       3.80      15.56
O       3.30       6.62       3.13
O       2.78       5.33       4.93
O       0.10      11.69       5.43
O      13.42      12.46       3.60
O      12.22       8.67       8.52
O      10.03       8.27       8.39
O       7.33      10.77       4.85
O       8.61      11.33       3.06
