48

C       6.76       1.18      13.68
C       0.13       0.14      11.65
C       0.72      14.57      13.68
C       3.15      14.57       2.07
C       3.74       0.13       4.10
C       4.34       1.17       2.06
C       4.95       2.07       1.17
C       5.55       4.10       0.14
C       6.15       2.07      14.57
C       1.34      13.68      14.58
C       1.93      11.65       0.13
C       2.53      13.68       1.17
C       6.17       0.26       8.21
C       1.32       0.01       8.21
C       0.13       0.13      10.25
C       2.55       0.01       7.53
C       4.93       0.26       7.53
C       3.74       0.13       5.49
C       4.36       7.53       0.26
C       6.74       7.53       0.01
C       5.55       5.49       0.14
C       0.74       8.21       0.01
C       3.13       8.21       0.26
C       1.94      10.25       0.13
N       6.76       1.17      12.32
N       0.72      14.58      12.33
N       0.13       0.14      14.30
N       3.15      14.58       3.42
N       4.34       1.17       3.42
N       3.74       0.13       1.45
N       4.95       3.42       1.17
N       6.15       3.42      14.58
N       5.55       1.45       0.13
N       1.34      12.32      14.58
N       2.53      12.32       1.17
N       1.93      14.30       0.14
N       0.13       0.13       7.55
N       1.29      15.46       9.57
N       6.20       0.29       9.57
N       3.74       0.13       8.19
N       4.90       0.29       6.18
N       2.58      15.46       6.18
N       5.55       8.19       0.13
N       6.71       6.18      15.46
N       4.39       6.18       0.29
N       1.93       7.55       0.14
N       3.10       9.57       0.29
N       0.77       9.57      15.46
