110

Zn       7.80       0.00       0.00
Zn       5.24       0.00       0.00
Zn       0.00       7.80      11.82
Zn       0.00       5.24      11.82
Si       6.52       6.52      17.73
Si       6.52       6.52       5.91
H       8.67       8.18      18.97
H       8.66      10.00      20.65
H       4.36       4.85      18.97
H       4.37       3.03      20.65
H       4.85       8.67       7.15
H       3.03       8.66       8.83
H       8.18       4.36       7.15
H      10.00       4.37       8.83
H       4.36       8.18       4.67
H       4.37      10.00       2.98
H       8.67       4.85       4.67
H       8.66       3.03       2.98
H       8.18       8.67      16.48
H      10.00       8.66      14.80
H       4.85       4.36      16.48
H       3.03       4.37      14.80
H       4.36       4.85       4.67
H       4.37       3.03       2.98
H       8.67       8.18       4.67
H       8.66      10.00       2.98
H       8.18       4.36      16.48
H      10.00       4.37      14.80
H       4.85       8.67      16.48
H       3.03       8.66      14.80
H       8.67       4.85      18.97
H       8.66       3.03      20.65
H       4.36       8.18      18.97
H       4.37      10.00      20.65
H       4.85       4.36       7.15
H       3.03       4.37       8.83
H       8.18       8.67       7.15
H      10.00       8.66       8.83
C       7.72       8.57      19.33
C       7.73       9.59      20.27
C       5.31       4.46      19.33
C       5.30       3.44      20.27
C       4.46       7.72       7.51
C       3.44       7.73       8.45
C       8.57       5.31       7.51
C       9.59       5.30       8.45
C       5.31       8.57       4.31
C       5.30       9.59       3.36
C       7.72       4.46       4.31
C       7.73       3.44       3.36
C       8.57       7.72      16.12
C       9.59       7.73      15.18
C       4.46       5.31      16.12
C       3.44       5.30      15.18
C       5.31       4.46       4.31
C       5.30       3.44       3.36
C       7.72       8.57       4.31
C       7.73       9.59       3.36
C       8.57       5.31      16.12
C       9.59       5.30      15.18
C       4.46       7.72      16.12
C       3.44       7.73      15.18
C       7.72       4.46      19.33
C       7.73       3.44      20.27
C       5.31       8.57      19.33
C       5.30       9.59      20.27
C       4.46       5.31       7.51
C       3.44       5.30       8.45
C       8.57       7.72       7.51
C       9.59       7.73       8.45
C       6.52       8.03      18.84
C       6.52      10.11      20.76
C       6.52      11.18      21.80
C       6.52       5.00      18.84
C       6.52       2.93      20.76
C       6.52       1.85      21.80
C       5.00       6.52       7.02
C       2.93       6.52       8.94
C       1.85       6.52       9.99
C       8.03       6.52       7.02
C      10.11       6.52       8.94
C      11.18       6.52       9.99
C       6.52       8.03       4.80
C       6.52      10.11       2.87
C       6.52      11.18       1.83
C       6.52       5.00       4.80
C       6.52       2.93       2.87
C       6.52       1.85       1.83
C       8.03       6.52      16.61
C      10.11       6.52      14.69
C      11.18       6.52      13.65
C       5.00       6.52      16.61
C       2.93       6.52      14.69
C       1.85       6.52      13.65
O       7.66      11.59      22.21
O       5.38       1.44      22.21
O       1.44       7.66      10.40
O      11.59       5.38      10.40
O       5.38      11.59       1.42
O       7.66       1.44       1.42
O      11.59       7.66      13.24
O       1.44       5.38      13.24
O       5.38       1.44       1.42
O       7.66      11.59       1.42
O      11.59       5.38      13.24
O       1.44       7.66      13.24
O       7.66       1.44      22.21
O       5.38      11.59      22.21
O       1.44       5.38      10.40
O      11.59       7.66      10.40
