13

C       5.55       9.51       9.86
C       6.48       8.65      10.47
C       7.82       8.70      10.07
H       4.51       9.48      10.15
C       7.21      10.43       8.54
C       6.04       7.71      11.53
H       8.56       8.06      10.55
C       8.19       9.61       9.08
H       9.21       9.67       8.72
N       5.90      10.40       8.91
H       7.44      11.17       7.77
O       6.91       6.98      12.13
O       4.81       7.64      11.85
