13

O       6.01       7.50      24.77
O       8.19       6.98      25.11
H       5.76       9.52      23.15
N       7.24      10.54      22.11
C       6.83       9.57      22.96
C       7.72       8.67      23.56
H       8.85      11.43      21.16
C       9.52       9.77      22.39
C       8.57      10.63      21.84
C       9.09       8.77      23.27
C       7.26       7.65      24.54
H       9.79       8.08      23.73
H      10.57       9.88      22.13
