13

N      -2.39      10.40       4.36
C      -2.75       9.51       3.41
C      -1.82       8.65       2.80
C      -0.48       8.70       3.20
C      -0.11       9.61       4.19
C      -1.09      10.43       4.74
C      -2.26       7.71       1.74
H      -3.79       9.48       3.12
O      -3.49       7.64       1.42
H       0.91       9.67       4.55
H      -0.86      11.17       5.50
O      -1.39       6.98       1.14
H       0.26       8.06       2.72
