13

O       1.55       7.53      12.34
O       2.95       7.21      14.07
H       3.96       9.31      14.97
C       2.67       9.43      13.24
C       2.13      10.30      12.28
C       3.52       9.97      14.22
N       3.86      11.27      14.28
C       2.37       7.98      13.21
C       3.33      12.08      13.35
H       1.46       9.92      11.52
C       2.46      11.65      12.34
H       2.05      12.36      11.63
H       3.62      13.13      13.42
