13

O       1.55       7.53       0.93
N       3.86      11.27      -1.01
O       2.95       7.21      -0.80
C       3.52       9.97      -0.95
C       2.67       9.43       0.03
C       2.13      10.30       0.99
C       2.46      11.65       0.93
C       3.33      12.08      -0.08
C       2.37       7.98       0.06
H       3.96       9.31      -1.70
H       1.46       9.92       1.75
H       2.05      12.36       1.64
H       3.62      13.13      -0.14
