13

N       6.26       1.10       4.43
C       6.68       2.07       3.59
C       5.79       2.97       2.98
C       4.42       2.86       3.28
C       3.99       1.87       4.15
C       4.94       1.01       4.70
C       6.25       3.99       2.00
H       7.74       2.12       3.39
H       3.72       3.56       2.81
O       7.50       4.13       1.77
H       4.66       0.20       5.38
O       5.32       4.66       1.44
H       2.94       1.76       4.42
