13

H      -0.55       2.12       9.88
C      -2.05       3.99      11.27
H      -5.36       1.76       8.86
H      -3.64       0.20       7.89
C      -3.36       1.01       8.57
H      -4.58       3.56      10.46
N      -2.04       1.10       8.84
O      -0.80       4.13      11.50
O      -2.98       4.66      11.83
C      -1.62       2.07       9.68
C      -2.51       2.97      10.29
C      -3.88       2.86       9.99
C      -4.31       1.87       9.12
