19

N       7.54      14.23       4.23
N       7.47      17.66       0.34
Cd       7.46      17.39       3.60
N       5.35      16.51       2.73
N       7.52      20.58       2.79
N       8.29      15.21       3.74
N      10.81      17.79       3.86
N       6.75      19.63       3.33
N       6.58      17.53       5.81
N       4.16      17.04       3.04
N       8.23      17.28       1.36
N       5.42      18.15       6.11
N       9.47      14.74       3.33
N       5.18      15.49       1.89
N       9.62      18.24       4.29
N       9.44      16.92       0.91
N       7.23      17.21       6.92
N       9.81      19.26       5.12
N       5.52      20.11       3.54
