19

N      20.10      12.61      21.47
N      17.76      14.20      26.25
Cd      17.75      14.47      22.98
N      14.45      14.82      23.55
N      17.81      11.29      23.79
N      15.47      16.37      24.69
N      19.76      17.13      23.26
N      17.04      12.23      23.26
N      18.52      14.58      25.23
N      15.64      15.36      23.86
N      15.71      13.72      20.47
N      17.83      17.64      22.36
N      19.73      14.95      25.68
N      19.92      13.62      22.30
N      15.81      11.75      23.05
N      21.10      14.08      22.73
N      18.58      16.65      22.85
N      17.52      14.65      19.67
N      16.87      14.33      20.78
