19

C       2.17      10.11      16.00
N       5.30      10.58      16.61
C       1.48       9.54      19.16
N       2.83       9.49      19.08
C       1.45       8.09      15.13
Cd       3.75       7.78      17.69
N       4.16       6.04      16.23
C       3.54      10.42      19.75
C       2.33       6.61      20.39
N       6.58       8.85      16.21
N       5.46       6.91      20.48
N       2.26       6.37      19.06
C       1.40       5.41      18.64
N       2.21       8.76      16.03
N       6.75       6.79      18.72
N       5.42       9.26      16.76
N       5.52       7.09      19.16
N       5.35       5.64      15.75
N       3.19       5.30      15.70
