19

Cd       0.90      15.75      24.30
N      -0.76      18.44      23.02
C       2.34      14.43      26.94
N      -0.82      17.13      23.26
C       3.32      16.36      21.97
N       1.84      17.39      25.85
N      -2.06      14.58      25.23
C       1.14      18.32      26.55
N      -0.85      14.95      25.68
N      -0.67      13.62      22.30
N      -0.79      14.79      27.00
N       2.43      16.91      22.83
C       3.25      13.31      25.13
N       2.40      14.26      25.60
N       0.52      14.08      22.73
N      -2.00      16.65      22.85
C       3.18      17.42      25.95
N       1.51      13.37      22.18
C       2.35      18.25      22.87
