19

N      13.12      22.38       7.51
N      15.59      21.28       9.98
N      17.04      25.07       7.87
Cd      14.04      24.08       8.90
N      15.71      22.60       9.83
C      13.83      21.45       6.84
C      11.74      23.78      11.45
C      12.62      25.25       6.20
N      13.48      26.56      10.89
N      12.55      25.49       7.53
N      15.64      26.22      10.84
N      15.75      24.95       6.11
N      16.87      23.01      10.38
C      11.69      26.45       7.95
N      15.81      24.78       7.43
N      12.50      23.11      10.56
N      14.45      25.82      10.36
C      12.46      21.75      10.59
C      11.77      22.33       7.43
