19

C      18.64       5.70       7.38
N      17.38       6.15       7.51
N      15.23       7.88       9.88
C      16.49       9.01       3.83
N      16.12      10.69       6.87
Cd      16.79       8.42       7.03
N      14.67       7.56       6.31
N      17.38       8.49       4.71
N      19.46      10.10       8.43
N      20.02       8.48       7.08
C      18.64       8.28       4.28
C      14.53       6.53       5.45
N      16.12       8.68       9.29
N      19.00       9.13       7.62
C      16.49       5.38       8.18
N      16.63      11.72       7.56
C      13.55       8.14       6.80
N      16.63       9.54      10.18
N      15.23      11.13       5.99
