19

Cd      14.04      13.07      22.10
C      11.74      15.53      21.34
N      13.48      15.47      24.18
N      14.45      14.82      23.55
N      17.04      12.23      23.26
C      11.69      12.56      24.60
N      15.64      15.36      23.86
N      15.71      13.72      20.47
C      13.83      10.57      19.88
N      12.55      11.97      23.73
C      12.46      14.32      19.51
N      15.81      11.75      23.05
N      13.12      11.40      20.67
C      11.77      11.31      20.64
N      12.50      14.53      20.84
C      12.62      10.62      23.74
N      15.59      13.63      19.15
N      15.75      10.48      23.46
N      16.87      14.33      20.78
