24

Cu       7.40       0.01       5.89
Cu      13.72      -0.01       6.61
Cu       4.24       0.36       6.26
Cu      10.56      -0.36       6.25
C      10.37      -2.28       4.05
C       7.63      -2.01       3.77
C       4.03       2.29       8.46
C       1.30       2.01       8.73
C       7.20       2.21       3.97
C       4.47       2.48       4.24
C      13.52      -2.21       8.54
C      10.78      -2.48       8.26
Br       8.97       1.09       7.52
Br       2.66      -1.09       4.98
Br       5.81      -1.26       7.34
Br      12.13       1.27       5.16
N       8.30      -1.30       4.68
N       9.68      -1.42       4.81
N       1.98       1.30       7.82
N       3.35       1.43       7.70
N       5.14       1.57       4.95
N       6.52       1.45       4.83
N      11.46      -1.57       7.55
N      12.83      -1.45       7.68
