134

Cs       2.23      12.35       3.35
Cs       6.15       5.35      10.20
Cd       5.45       1.12       3.40
Cd      11.49      10.16       3.40
Cd       2.92       8.12      10.12
Cd      -3.10       3.17      10.14
H       6.39       4.90       0.48
H      10.11       7.10       0.47
H      10.89       5.78       2.43
H       9.44       3.96       3.36
H       4.43      11.26       6.89
H       8.34      11.77       5.14
H       9.23       9.96       6.57
H       7.69       8.72       8.11
H      10.46       6.37       6.35
H       6.71       4.24       6.33
H       5.88       5.70       4.48
H       7.35       7.53       3.59
H      -0.02      13.93       0.37
H       8.73      13.87       1.76
H       8.19       1.82       0.31
H       5.50       2.84      12.42
H       1.99      11.90      13.05
H      -1.75       0.12      13.05
H      -2.52      12.77      11.10
H      -1.07      10.95      10.17
H       3.92       4.26       6.61
H       0.02       4.78       8.40
H      -0.88       2.98       6.99
H       0.64       1.72       5.43
H      -2.08      13.35       7.18
H       1.68      11.22       7.22
H       2.51      12.70       9.05
H       1.01       0.53       9.93
H       8.41       6.95      13.18
H      -0.35       6.88      11.77
H       0.18       8.82      13.21
H       2.88       9.84       1.10
C       7.38       5.08       0.89
C       8.21       6.06       0.34
C       9.48       6.31       0.89
C       9.92       5.56       1.98
C       9.11       4.55       2.51
C       7.84       4.31       1.96
C       3.26       6.81      12.66
C       6.98       3.22       2.50
C       5.48      10.96       6.81
C       6.33      11.63       5.93
C       7.69      11.26       5.84
C       8.18      10.22       6.64
C       7.33       9.53       7.50
C       5.97       9.90       7.58
C       5.79      12.75       5.12
C       5.05       9.18       8.51
C       9.46       6.24       5.95
C       8.62       5.24       6.48
C       7.33       5.05       5.93
C       6.86       5.87       4.91
C       7.69       6.88       4.40
C       8.99       7.05       4.92
C       9.86       8.11       4.35
C       9.03       4.44       7.66
C      11.81       0.35       0.35
C      10.81      13.79       1.16
C       9.49       0.32       1.14
C       9.20       1.42       0.32
C       5.72       1.99      13.06
C       7.02       1.45      13.06
C       8.06       2.00      12.14
C      11.12      12.59       2.00
C       0.99      12.08      12.64
C       0.16      13.06      13.19
C      -1.11      13.31      12.64
C      -1.55      12.56      11.55
C      -0.74      11.55      11.02
C       0.54      11.32      11.57
C       5.11      13.80       0.87
C       1.39      10.23      11.03
C       2.87       3.97       6.70
C       2.03       4.64       7.59
C       0.68       4.27       7.70
C       0.17       3.23       6.90
C       1.01       2.54       6.04
C       2.37       2.91       5.94
C       2.58       5.75       8.41
C       3.28       2.19       5.01
C      -1.08      13.21       7.57
C      -0.23      12.23       7.05
C       1.06      12.03       7.60
C       1.52      12.86       8.62
C       0.69      13.86       9.13
C      -0.63       0.04       8.62
C      -1.50       1.10       9.18
C      -0.65      11.42       5.87
C      -3.43       7.36      13.18
C      -2.44       6.80      12.37
C      -1.13       7.33      12.39
C      -0.83       8.42      13.20
C       2.66       8.98       0.47
C       1.36       8.44       0.48
C       0.32       8.99       1.40
C      -2.75       5.61      11.53
O       2.07       7.20      12.55
O       4.14       7.00      11.73
O       7.52       2.29       3.20
O       5.73       3.21       2.26
O       4.54      12.93       5.02
O       6.63      13.53       4.52
O       5.52       8.53       9.48
O       3.78       9.27       8.31
O       9.32       9.15       3.84
O      11.13       7.99       4.39
O      -2.59       4.34       7.99
O       8.12       3.92       8.38
O       7.65       2.61      11.08
O      -3.55       1.87      12.37
O      -0.54      12.40       2.44
O      10.19      11.76       2.25
O       6.29       0.19       0.97
O       4.24      13.99       1.80
O       0.85       9.29      10.33
O       2.64      10.21      11.27
O       3.83       5.93       8.50
O       1.75       6.53       9.02
O       2.80       1.52       4.05
O       4.55       2.27       5.20
O      -0.96       2.13       9.71
O      -2.77       0.99       9.14
O      10.97      11.33       5.54
O       0.26      10.87       5.16
O       0.75       9.60       2.45
O      11.93       8.86       1.16
O       8.91       5.42      11.11
O      -1.81       4.79      11.27
