172

Cu      -1.16       5.16       6.00
Cu       4.01      -0.06       0.89
Cu       7.69       1.37      15.47
Cu       2.38       6.59      20.51
Cu       4.00      -2.96      11.00
Cu       6.33       9.77      10.60
H       0.27      10.85       2.66
H       1.30       9.68       4.57
H       7.71      -0.49       4.33
H       6.50       0.58       2.42
H       3.28       8.56       7.42
H       1.84       9.12       6.57
H       4.70       7.01       7.70
H       6.92       6.09       7.82
H       7.08       5.38       3.71
H       4.82       6.31       3.40
H       0.36       4.71       8.40
H       2.63       3.89       8.94
H       3.43       3.76       4.68
H       1.14       4.53       4.30
H       5.29       2.46       4.98
H       6.21       1.55       6.18
H       5.82       0.63       8.16
H       5.88      -1.04       9.99
H      -0.33       9.76       8.28
H       2.75      -1.79       6.29
H      -2.32       6.52      21.29
H      -0.49      -5.22      19.64
H       2.74      -2.34      19.52
H       3.90      -3.71      21.25
H       8.26      -2.87      17.17
H       8.35      -3.86      18.65
H      -0.46      -2.42      15.46
H      -0.09      -1.91      13.07
H       6.38       7.15      11.97
H       6.07       6.43      14.33
H       2.92       8.43       9.80
H       7.62       3.30       0.53
H       6.21      -4.33      18.81
H       5.25      -3.11      16.89
H      -1.22       7.11      16.98
H      -0.06       5.98      18.89
H       3.36      -1.85      14.06
H       4.75      -2.44      14.97
H       1.85      -0.51      13.85
H      -0.38       0.39      13.66
H      -0.56       1.27      17.76
H       1.71       0.37      18.11
H       5.99       1.62      13.12
H       3.69       2.43      12.70
H       3.24       2.94      16.98
H       5.54       2.15      17.24
H       1.49       4.20      16.76
H       0.38       5.00      15.64
H       0.35       5.77      13.63
H      -0.25       7.41      11.89
H       6.23      -3.27      12.72
H       3.72       8.31      14.63
H       8.71       0.03       0.05
H       6.93      11.80       1.68
H       3.74       8.87       1.87
H       2.53      10.23       0.16
H      -1.71       9.49       4.09
H      -1.88      10.47       2.61
H       7.31       8.96       5.83
H       6.97       8.42       8.19
H      -0.22      -0.61       9.28
H       0.06       0.13       6.92
H       2.05      -1.07      10.13
H      -1.26       3.23      20.96
C       1.20      11.20       3.08
C       1.80      10.55       4.15
C       3.02      11.02       4.66
C       6.75      -0.88       4.01
C       6.09      -0.28       2.95
C       2.90       8.87       6.44
C       4.53       6.78       5.50
C       5.16       6.68       6.77
C       6.44       6.16       6.85
C       6.52       5.75       4.56
C       5.25       6.27       4.40
C       1.07       4.48       7.61
C       2.34       4.02       7.90
C       3.25       3.72       6.86
C       2.79       3.94       5.54
C       1.50       4.37       5.31
C       5.22       1.96       5.95
C       4.24      -0.41       7.07
C       5.14      -0.22       8.13
C       5.16      -1.13       9.18
C       3.48      -2.40       8.21
C       3.43      -1.56       7.11
C       1.21      -5.56      20.88
C       0.49      -4.85      19.94
C       1.03      -3.67      19.40
C       2.27      -3.24      19.90
C       2.93      -4.00      20.86
C       8.88      -3.59      17.72
C       6.21       8.46      15.12
C      -0.51      -3.23      14.74
C      -0.30      -2.92      13.40
C       6.42       7.87      12.78
C       6.24       7.48      14.10
C       3.99       8.69       9.99
C       6.82      -4.00      21.43
C       5.28      -4.65      18.34
C       4.72      -3.97      17.28
C       3.51      -4.41      16.73
C      -0.25       7.48      17.33
C       0.37       6.85      18.39
C       3.69      -2.19      15.05
C       2.00      -0.20      16.03
C       1.37      -0.15      14.76
C       0.09       0.36      14.64
C       0.01       0.86      16.92
C       1.28       0.36      17.11
C       5.35       1.93      13.95
C       4.07       2.38      13.72
C       3.25       2.79      14.80
C       3.81       2.68      16.09
C       5.11       2.23      16.25
C       1.41       4.62      15.75
C       2.08       6.91      14.33
C       0.97       6.65      13.51
C       0.64       7.56      12.51
C       2.47       8.89      12.99
C       2.84       8.07      14.04
C       5.20      12.11       0.47
C       5.95      11.41       1.40
C       5.44      10.22       1.95
C       4.19       9.78       1.47
C       3.51      10.52       0.52
C      -2.38      10.18       3.55
C      -2.88      11.12       6.15
C      -2.89       9.78       6.54
C       7.01       9.46       7.87
C      -0.10      -1.33       8.47
C       0.07      -0.93       7.15
C       1.81      -1.10      11.22
C      -0.93       4.19      21.41
S       3.86      10.35       6.03
S       2.91       7.43       5.29
S       4.86       3.17       7.27
S       4.01       0.63       5.68
S       5.89       7.90      16.76
S       0.30      -2.68      18.15
S       2.70      -3.67      15.37
S       3.61      -0.84      16.28
S       1.60       3.31      14.49
S       2.61       5.98      15.70
S       0.59      -1.31       4.52
S       6.21       9.24       3.18
N       1.74      12.28       2.46
N       7.16       5.70       5.78
N       0.61       4.65       6.31
N       4.32      -2.19       9.26
N       2.43      -5.17      21.34
N       6.61       9.17      12.41
N       1.55       7.28      18.92
N      -0.63       0.85      15.70
N       5.91       1.86      15.21
N       1.36       8.67      12.24
N       3.99      11.70       0.03
N      -3.25      10.38       8.85
O       4.19       9.83      10.54
O       4.88       7.86       9.66
O       6.35       1.73       0.39
O       7.55      -4.31      20.44
O       2.68      -1.71      11.96
O       0.76      -0.55      11.61
O       0.08       4.76      20.88
O      -1.06      11.02       0.93
