130

C      15.89       5.45       1.87
C      16.90       5.99       9.18
C      17.00       5.88       6.39
C      15.70       4.09       1.50
C      14.60       3.24       2.10
C      15.76       5.98       7.03
C      15.70       5.91       8.44
C      14.74       6.38       2.11
C      14.62       6.52       6.27
C      14.38       5.85       9.17
C      16.96      13.59       6.37
C      15.62      11.63       5.99
C      16.37      12.45       6.92
C      10.38       2.07       0.99
C      11.00       1.82      13.14
C       9.60       1.07       0.17
C      15.83      12.57       8.21
C      11.55       2.85      13.92
C      16.48      14.10      13.75
C      15.06      13.35       0.79
C      14.30      12.43       0.05
C      10.89       7.34       1.66
C       3.20       5.96       1.82
C      11.93      10.67       5.82
C      13.46      11.45       0.76
C       6.45       5.79      13.98
C       5.41       6.15       9.31
C       8.66       8.56      13.74
C      10.31       6.67       8.83
C      11.33       4.25      13.50
C       9.50       2.86       8.53
C       3.82       4.17       0.31
C       4.19       5.25       1.14
C       2.65       3.49       0.64
C       4.15       6.03       8.53
C       4.19       5.92       7.13
C      15.43      13.83       8.68
C       9.72       1.54       7.92
C      10.52       1.42       6.74
C      10.86       2.63       5.88
C       9.65       7.62       0.88
C       8.39       7.71       1.51
C       7.24       7.98       0.74
C       9.60       9.47      14.43
C      10.87       9.67      13.84
C      12.03       9.44      14.60
C      11.00       9.74      12.34
C      10.47       7.95       8.08
C      11.01       9.09       8.69
C      10.98      10.32       8.02
C      10.75      10.33       6.64
C       9.89       9.34       6.14
C       9.86       8.09       6.81
C       8.99       9.62       4.97
F      14.93       1.90       2.06
F      14.38       3.59       3.42
F      13.43       3.43       1.38
F      14.52       5.24      10.41
F      11.22       1.41       1.88
F      13.46       5.11       8.44
F      13.89       7.13       9.35
F      11.17       2.87       0.18
F      11.97       3.27       6.40
F      12.18      10.35      11.97
F      11.14       2.25       4.58
F       9.80       3.52       5.84
F       9.51       2.86       1.71
F      10.99       8.45      11.85
F       9.95      10.46      11.79
F       7.89       8.78       4.97
F       8.54      10.93       5.02
F       9.68       9.44       3.79
H      17.05       5.89       5.30
H      16.86       6.03      10.27
H      17.58      13.48       5.49
H      15.37      10.25       3.05
H       3.44       6.93       2.26
H      15.52      11.68       8.75
H      10.84       1.97      12.08
H      15.94      13.37      13.16
H      13.00       9.44      14.12
H      15.21      13.19       1.85
H      11.97       8.68       4.29
H       8.82       7.34      10.72
H       9.03       3.50      11.64
H       2.40       2.56       0.13
H       5.19       5.65       1.09
H       5.14       5.92       6.61
H      14.92      13.91       9.63
H       6.28       7.97       1.23
H       8.30       7.54       2.57
H      11.44      11.18       8.49
H       9.33       7.26       6.36
H      11.52       9.01       9.63
Ni      14.34       9.19       5.09
Ni      12.52       6.37       4.02
Ni      13.27       8.96       2.22
Ni      13.59      11.88       3.71
Ni       8.10       5.01       9.87
Ni       9.08       5.88      12.68
Ni       6.65       7.70      11.63
Ni      11.11       4.37      10.52
O      14.87       7.68       1.91
O      14.24       5.91       5.15
O      13.56       5.88       2.34
O      15.75      10.30       6.04
O      14.25       7.75       6.53
O      14.44      10.16       3.37
O      13.67      10.15       0.60
O      12.84       8.28       4.05
O      12.05       7.73       1.15
O      11.92       4.72      12.41
O      10.85       6.68       2.83
O      12.75      11.86       1.80
O      11.84      11.21       4.62
O      13.07      10.26       6.25
O      14.50      12.19       5.52
O       8.19       6.67      11.07
O       6.53       5.73       8.76
O       5.34       6.41      10.60
O       9.33       5.88       8.49
O      10.54       3.65       8.71
O       5.93       6.81      13.33
O       8.75       7.30      14.06
O       9.31       4.38      11.30
O       8.26       3.32       8.72
O      10.29       4.88      13.98
O      11.10       6.33       9.84
O       7.38       5.03      13.44
O       7.83       8.97      12.78
