66

H       3.39       8.08      21.24
H       6.13       2.46      14.61
H       6.34       7.77      28.23
H       6.44       3.09      18.32
H       9.40       2.80      25.29
H       3.80       8.30      25.52
H       8.99       2.58      21.01
H       7.33       3.61      28.32
H       5.45       7.25      18.21
H       7.79       3.33      32.05
H       4.96       7.49      14.48
H       6.64       8.37      31.95
C       6.06       3.88      16.35
C       6.60       6.89      28.81
C       6.18       3.96      17.74
C       6.82       5.68      28.14
C       5.96       5.18      18.40
C       7.23       5.86      32.35
C       5.53       4.96      14.20
C       7.27       4.89      20.40
C       5.52       5.98      26.14
C       5.02       5.67      20.56
C       7.77       5.20      25.98
C       5.16       5.89      21.94
C       7.63       4.99      24.60
C       6.33       5.40      22.57
C       6.46       5.48      23.97
C       7.38       4.83      21.80
C       5.41       6.05      24.74
C       4.17       6.57      22.70
C       7.17       4.53      28.86
C       8.62       4.31      23.84
C       4.30       6.66      24.10
C       8.49       4.22      22.44
C       3.11       7.36      22.00
C       9.68       3.52      24.53
C       3.38       7.54      24.87
C       9.41       3.34      21.66
C       7.75       3.35      30.97
C       5.01       7.48      15.56
C       6.45       8.25      30.89
C       5.60       6.32      17.68
C       6.32       2.58      15.67
C       7.34       4.58      30.24
C       5.43       6.26      16.29
C       7.09       5.80      30.91
C       5.67       5.03      15.63
C       6.71       6.96      30.20
N       6.09       5.25      19.82
N       6.70       5.62      26.72
O       4.45       6.23      26.93
O       3.83       5.85      19.95
O       8.95       5.02      26.60
O       1.93       7.16      22.23
O      10.86       3.73      24.32
O       2.17       7.38      24.84
O      10.62       3.49      21.70
O       8.06       2.33      30.36
O       4.71       8.50      16.15
O       6.00       9.21      30.28
O       6.77       1.62      16.29
O       8.43       6.00      32.84
O       4.34       4.82      13.70
O       6.16       5.78      33.07
O       6.61       5.04      13.47
O       8.33       4.64      19.61
