20

H       1.00       5.08       7.47
H      -0.51       9.40       8.10
C       0.57       5.39      10.00
C       0.45       6.41       8.90
C      -0.00       7.71       9.08
C      -0.25       8.33      10.44
C       0.70       5.95       7.60
C      -0.08       9.09       5.57
C       0.04       8.07       6.68
C       0.49       6.77       6.49
C       0.74       6.15       5.14
C      -0.21       8.53       7.97
O       1.54       5.43      10.81
O      -0.33       4.52      10.02
O       0.53       8.10      11.38
O      -1.24       9.12      10.51
O      -1.05       9.05       4.76
O       0.82       9.96       5.55
O      -0.04       6.38       4.19
O       1.73       5.36       5.06
