456

C      11.81       2.62      37.81
C      12.01       3.00      36.46
C      12.08       4.35      36.08
C      11.94       5.39      37.03
C      11.79       5.01      38.39
C      11.72       3.66      38.77
C      13.49       7.47      37.40
C      13.54       8.49      38.38
C      14.76       8.92      38.93
C      15.98       8.32      38.55
C      15.93       7.22      37.66
C      14.71       6.80      37.10
C      12.17       7.22      34.97
C      10.77       7.92      37.07
C      10.76       9.31      36.79
C       9.66      10.12      37.13
C       8.52       9.57      37.76
C       8.51       8.18      38.01
C       9.60       7.37      37.65
C      11.08       6.83      34.16
C      11.13       6.94      32.76
C      12.29       7.43      32.12
C      13.36       7.89      32.93
C      13.29       7.81      34.33
C       0.28      18.09      18.33
C       0.07      17.72      16.98
C       0.00      16.37      16.60
C       0.15      15.33      17.55
C       0.29      15.70      18.91
C       0.37      17.06      19.29
C      -1.41      13.25      17.92
C      -1.45      12.22      18.89
C      -2.67      11.80      19.45
C      -3.90      12.39      19.06
C      -3.84      13.49      18.18
C      -2.62      13.92      17.62
C      -0.09      13.50      15.49
C       1.32      12.79      17.59
C       1.33      11.40      17.30
C       2.43      10.60      17.64
C       3.56      11.15      18.28
C       3.57      12.54      18.53
C       2.48      13.35      18.17
C       1.01      13.89      14.68
C       0.95      13.78      13.28
C      -0.20      13.29      12.64
C      -1.27      12.83      13.44
C      -1.20      12.91      14.85
C      -0.16      17.96       0.76
C       0.80      17.63       1.75
C       0.87      16.34       2.30
C      -0.04      15.33       1.91
C      -0.99      15.65       0.92
C      -1.06      16.94       0.36
C       1.62      13.32       1.89
C       1.76      13.19       0.49
C       2.96      12.74      38.88
C       4.07      12.42       0.72
C       3.96      12.62       2.12
C       2.76      13.09       2.69
C       0.09      13.75       4.19
C      -1.08      12.75       2.10
C      -0.84      11.49       1.51
C      -1.90      10.64       1.15
C      -3.25      11.01       1.38
C      -3.49      12.23       2.06
C      -2.42      13.08       2.41
C      -0.42      14.83       4.96
C      -0.56      14.74       6.35
C      -0.19      13.56       7.03
C       0.30      12.47       6.28
C       0.40      12.55       4.88
C      12.25       2.76      20.24
C      11.29       3.08      21.23
C      11.21       4.37      21.78
C      12.12       5.39      21.40
C      13.08       5.07      20.40
C      13.14       3.78      19.84
C      10.47       7.40      21.38
C      10.33       7.52      19.97
C       9.13       7.98      19.39
C       8.02       8.30      20.20
C       8.13       8.10      21.60
C       9.32       7.63      22.17
C      12.00       6.97      23.68
C      13.17       7.97      21.58
C      12.93       9.23      20.99
C      13.99      10.08      20.63
C      15.33       9.71      20.87
C      15.57       8.49      21.54
C      14.51       7.64      21.90
C      12.51       5.88      24.44
C      12.64       5.98      25.83
C      12.28       7.16      26.52
C      11.79       8.25      25.76
C      11.69       8.17      24.36
C      12.38       7.25      27.92
C      13.52       6.83      28.64
C      13.53       6.92      30.04
C      12.39       7.41      30.71
C      -0.29      13.47       8.44
C      -1.44      13.89       9.16
C      -1.45      13.79      10.56
C      -0.30      13.31      11.23
C      11.75       1.25      38.21
C      11.30       0.21      37.37
C      -0.64      19.55      37.85
C      -0.20      19.27       0.20
C       7.43      10.37      38.17
C       6.91      11.44      37.41
C       5.79      12.15      37.89
C       5.23      11.81       0.18
C      17.23       8.87       0.03
C      18.41       8.84      38.22
C      -4.30       9.51      38.67
C      -4.33      10.21       0.93
C       0.34      19.46      18.73
C       0.79      20.51      17.89
C      12.73       1.17      18.37
C      12.29       1.45      19.68
C       4.66      10.34      18.69
C       5.18       9.28      17.93
C       6.30       8.57      18.40
C       6.86       8.91      19.66
C      -5.14      11.85      19.51
C      -6.32      11.88      18.74
C      16.39      11.21      19.18
C      16.42      10.50      20.41
C       5.81      13.02      25.81
C       6.01      13.39      24.46
C       6.08      14.74      24.08
C       5.94      15.78      25.03
C       5.79      15.41      26.39
C       5.72      14.05      26.77
C       7.49      17.86      25.40
C       7.54      18.89      26.38
C       8.76      19.31      26.93
C       9.98      18.72      26.55
C       9.93      17.62      25.66
C       8.71      17.19      25.10
C       6.17      17.61      22.97
C       4.77      18.32      25.07
C       4.76      19.71      24.79
C       3.66      20.51      25.13
C       2.52      19.96      25.76
C       2.51      18.57      26.01
C       3.60      17.76      25.65
C       5.08      17.22      22.16
C       5.13      17.33      20.76
C       6.29      17.82      20.12
C       7.36      18.28      20.93
C       7.29      18.20      22.33
C       6.21       7.82       6.33
C       6.00       7.45       4.98
C       5.93       6.10       4.60
C       6.08       5.06       5.55
C       6.22       5.43       6.91
C       6.30       6.79       7.29
C       4.52       2.98       5.92
C       4.48       1.95       6.89
C       3.26       1.53       7.45
C       2.03       2.12       7.06
C       2.09       3.22       6.18
C       3.31       3.65       5.62
C       5.84       3.23       3.49
C       7.25       2.52       5.59
C       7.26       1.13       5.30
C       8.36       0.33       5.64
C       9.49       0.88       6.28
C       9.50       2.27       6.53
C       8.41       3.08       6.17
C       6.94       3.62       2.68
C       6.88       3.51       1.28
C       5.73       3.02       0.64
C       4.66       2.56       1.44
C       4.73       2.64       2.85
C       5.77       7.69      27.72
C       6.73       7.36      28.71
C       6.80       6.07      29.26
C       5.89       5.06      28.87
C       4.94       5.38      27.88
C       4.87       6.67      27.32
C       7.55       3.05      28.86
C       7.69       2.92      27.45
C       8.89       2.47      26.88
C      10.00       2.15      27.69
C       9.89       2.35      29.08
C       8.69       2.81      29.65
C       6.02       3.48      31.15
C       4.85       2.48      29.06
C       5.09       1.21      28.47
C       4.03       0.37      28.11
C       2.68       0.74      28.35
C       2.44       1.96      29.02
C       3.51       2.81      29.38
C       5.51       4.56      31.92
C       5.37       4.47      33.31
C       5.74       3.29      34.00
C       6.23       2.20      33.24
C       6.33       2.28      31.84
C       6.25      13.15       8.24
C       5.29      13.48       9.23
C       5.21      14.77       9.78
C       6.12      15.78       9.40
C       7.08      15.46       8.40
C       7.14      14.17       7.84
C       4.47      17.79       9.38
C       4.33      17.92       7.97
C       3.13      18.37       7.39
C       2.02      18.69       8.20
C       2.13      18.49       9.60
C       3.32      18.02      10.17
C       6.00      17.36      11.68
C       7.17      18.36       9.58
C       6.93      19.62       8.99
C       7.99      20.47       8.63
C       9.33      20.10       8.87
C       9.57      18.88       9.54
C       8.51      18.03       9.90
C       6.51      16.28      12.44
C       6.64      16.37      13.83
C       6.28      17.55      14.52
C       5.79      18.64      13.76
C       5.69      18.56      12.36
C       6.38      17.64      15.92
C       7.52      17.22      16.64
C       7.53      17.32      18.04
C       6.39      17.80      18.71
C       5.64       3.20      35.40
C       4.49       3.62      36.12
C       4.48       3.52      37.52
C       5.63       3.04      38.19
C       5.75      11.65      26.21
C       5.30      10.60      25.37
C       5.29       9.28      25.85
C       5.73       9.00      27.16
C      13.36       0.10      26.17
C      12.84       1.17      25.41
C      11.72       1.88      25.89
C      11.16       1.54      27.14
C      11.23      19.26      26.99
C      12.41      19.23      26.22
C     -10.30      19.90      26.67
C     -10.33      20.60      27.89
C       6.27       9.19       6.73
C       6.72      10.24       5.89
C       6.73      11.56       6.37
C       6.29      11.84       7.68
C      10.59       0.07       6.69
C      -0.82      19.67       5.93
C       0.30      18.96       6.40
C       0.86      19.30       7.66
C       0.79       1.58       7.51
C      -0.39       1.61       6.74
C      22.32       0.94       7.18
C      22.35       0.23       8.41
H       9.71      11.13      36.94
H      11.56       9.77      36.34
H       7.70       7.73      38.43
H       9.52       6.36      37.82
H      10.24       6.42      34.58
H      10.34       6.59      32.21
H      14.19       8.29      32.50
H      14.08       8.17      34.85
H      14.73       6.03      36.43
H      16.78       6.73      37.38
H      14.74       9.71       0.62
H      12.69       8.97      38.68
H      11.73       5.72       0.17
H      12.28       4.55      35.10
H      12.16       2.29      35.74
H      11.58       3.45       0.80
H       2.37       9.59      17.46
H       0.52      10.95      16.86
H       4.39      12.99      18.95
H       2.57      14.35      18.34
H       1.85      14.30      15.10
H       1.74      14.13      12.73
H      -2.11      12.43      13.01
H      -2.00      12.55      15.37
H      -2.65      14.69      16.95
H      -4.69      13.99      17.90
H      -2.65      11.01      20.10
H      -0.60      11.74      19.20
H       0.36      15.00      19.65
H      -0.19      16.17      15.62
H      -0.07      18.43      16.26
H       0.50      17.27      20.28
H      -1.68       9.74       0.71
H       0.11      11.15       1.33
H      -4.44      12.54       2.25
H      -2.65      13.96       2.88
H      -0.73      15.70       4.51
H      -0.91      15.55       6.87
H       0.55      11.59       6.74
H       0.71      11.72       4.38
H       2.75      13.23       3.70
H       4.75      12.42       2.74
H       2.99      12.59      37.86
H       0.97      13.37      38.82
H      -1.63      14.94       0.55
H       1.61      16.16       2.99
H       1.49      18.33       2.06
H      -1.78      17.12      38.63
H      13.77      10.98      20.19
H      11.98       9.57      20.81
H      16.53       8.17      21.73
H      14.74       6.75      22.36
H      12.82       5.02      23.99
H      13.00       5.17      26.35
H      11.54       9.13      26.22
H      11.37       9.00      23.86
H       9.34       7.49      23.18
H       7.33       8.30      22.22
H       9.10       8.13      18.38
H      11.12       7.35      19.34
H      13.72       5.77      20.03
H      10.48       4.56      22.47
H      10.60       2.39      21.54
H      13.87       3.60      19.14
H      14.35       6.59      30.56
H      14.34       6.47      28.15
H      -2.26      14.13      11.08
H      -2.26      14.25       8.67
H      -0.94      18.80      37.21
H      10.96       0.39      36.42
H       5.41      12.92      37.33
H       7.30      11.68      36.49
H      -3.48       9.53      38.06
H      18.43       8.40      37.29
H      13.03       1.92      17.73
H       1.13      20.33      16.94
H       6.68       7.80      17.84
H       4.79       9.04      17.01
H      15.57      11.18      18.58
H      -6.34      12.31      17.81
H      15.64       0.86      24.94
H       5.56      20.16      24.34
H       1.70      18.12      26.43
H       3.52      16.76      25.82
H       4.24      16.81      22.58
H       4.34      16.98      20.21
H       8.19      18.68      20.50
H       8.08      18.56      22.85
H       8.73      16.42      24.43
H      10.78      17.12      25.38
H       8.74      20.10      27.58
H       6.69      19.37      26.68
H       5.73      16.11      27.13
H       6.28      14.94      23.10
H       6.16      12.68      23.74
H       5.58      13.84      27.76
H      -3.63      19.98       5.46
H       6.45       0.68       4.86
H      10.32       2.72       6.95
H       8.50       4.08       6.34
H       7.78       4.03       3.10
H       7.67       3.86       0.73
H       3.82       2.16       1.01
H       3.93       2.28       3.37
H       3.28       4.42       4.95
H       1.24       3.72       5.90
H       3.28       0.73       8.10
H       5.33       1.47       7.20
H       6.29       4.72       7.65
H       5.74       5.90       3.62
H       5.86       8.16       4.26
H       6.43       7.00       8.28
H      -7.68      20.13      27.67
H       6.04       0.88      28.29
H       1.49       2.27      29.21
H       3.28       3.69      29.84
H       5.20       5.43      31.47
H       5.02       5.28      33.83
H       6.48       1.32      33.70
H       6.64       1.45      31.34
H       8.68       2.96      30.66
H      10.68       2.15      29.70
H       8.92       2.32      25.86
H       6.90       3.10      26.82
H       4.30       4.67      27.51
H       7.54       5.89      29.95
H       7.42       8.06      29.02
H       4.15       6.85      26.63
H      19.70       0.71       8.19
H       5.98      19.96       8.81
H      10.53      18.57       9.73
H       8.74      17.14      10.36
H       6.82      15.41      11.99
H       7.00      15.56      14.35
H       5.54      19.52      14.22
H       5.37      19.39      11.86
H       3.34      17.88      11.18
H       1.33      18.69      10.22
H       3.10      18.52       6.38
H       5.12      17.74       7.34
H       7.72      16.17       8.03
H       4.48      14.95      10.47
H       4.60      12.78       9.54
H       7.87      13.99       7.14
H       8.35      16.98      18.56
H       8.34      16.86      16.15
H       3.67       3.86      38.04
H       3.67       3.98      35.63
H       4.99       8.53      25.21
H       4.96      10.78      24.42
H      11.34       2.65      25.33
H      13.23       1.41      24.49
H      -9.48      19.93      26.06
H      12.43      18.79      25.29
H       7.03      12.31       5.73
H       7.06      10.05       4.94
H       0.68      18.19       5.84
H      -1.21      19.43       5.01
H      21.50       0.91       6.58
H      -0.41       2.04       5.81
N      11.33       7.79      29.95
N      11.32       7.72      28.64
N       0.76      12.93      10.47
N       0.76      13.00       9.16
N       0.21      20.33       0.94
N      12.15       0.90       0.50
N       5.80      10.78       0.85
N       6.83      10.11       0.40
N      -5.51      10.20       1.62
N      17.28       9.57       1.20
N      11.88       0.39      20.42
N      -0.06      19.82      19.98
N       6.28       9.94      20.33
N       5.26      10.61      19.88
N      17.60      10.52      21.10
N      -5.19      11.15      20.68
N       5.33      18.18      17.95
N       5.32      18.11      16.64
N       6.69       2.66      37.43
N       6.69       2.73      36.12
N       6.14      10.06      27.90
N       6.15      11.29      27.46
N      11.73       0.51      27.81
N       0.83      20.50      27.36
N     -11.51      20.59      28.58
N      11.28      19.96      28.16
N       5.88      10.78       8.42
N       5.87       9.55       7.98
N       0.28      20.33       8.33
N      11.19       0.34       7.88
N      23.53       0.25       9.10
N       0.74       0.87       8.68
Si      12.09       7.00      36.63
Si      -0.00      13.71      17.15
Si       0.15      13.79       2.53
Si      11.94       6.93      22.01
Si       6.09      17.39      24.63
Si       5.93       3.44       5.15
Si       6.08       3.52      29.49
Si       5.94      17.32      10.01
