36

H       3.56      13.40      10.52
H       3.22      16.54      13.96
H       3.09      15.37      11.88
H       5.56      13.48      19.52
H       5.25      11.31      15.91
H       5.75      11.39      18.26
H       7.49      12.85      14.41
H       7.61      12.32      12.67
H       8.08      11.21      14.00
H       4.59      18.26      15.01
H       5.80      17.55      16.20
H       4.62      18.80      16.72
C       4.80      11.17      11.28
C       3.64      14.55      12.32
C       4.69      12.39      12.06
C       5.34      13.48      18.46
C       5.46      12.30      17.74
C       5.22      12.28      16.38
C       4.87      13.46      15.67
C       4.62      14.64      16.43
C       4.70      13.47      14.25
C       4.02      14.57      13.67
C       3.72      15.70      14.42
C       4.09      15.78      15.76
C       5.16      12.44      13.38
C       3.93      13.44      11.54
C       4.90      14.65      17.83
C       4.82      15.85      18.66
C       7.36      12.00      13.71
C       4.75      17.92      16.06
O       3.69      10.58      11.00
O       5.98      10.73      10.95
O       3.65      16.28      19.02
O       5.94      16.43      18.96
O       6.05      11.47      13.79
O       3.80      16.95      16.43
