14

C       4.75      10.10       7.72
O       5.74      12.90       1.70
F       7.02      10.90       6.19
C       4.62      12.58       2.27
H       6.68      12.09       3.92
H       3.66      11.59       3.96
H       3.69      10.92       6.00
O       5.92       9.92       8.25
O       3.63       9.76       8.29
C       5.73      11.76       4.33
C       4.62      11.93       3.59
C       5.78      11.11       5.67
C       4.68      10.74       6.39
O       3.45      12.75       1.73
