28

H       1.48       4.30       9.58
H       1.40       1.14       6.08
H       1.50       2.26       8.23
H       1.02       6.69       6.08
H       0.78       4.64       0.35
H       0.93       6.76       4.01
H       0.76       6.74       1.61
H       1.23       1.20       3.68
C       1.28       6.84       8.69
C       1.39       3.21       7.73
C       1.23       5.62       7.89
C       0.87       4.61       1.43
C       0.85       5.80       2.14
C       0.95       5.80       3.53
C       1.06       4.59       4.26
C       1.09       3.36       3.52
C       1.15       4.54       5.68
C       1.28       3.28       6.34
C       1.30       2.10       5.59
C       1.21       2.14       4.21
C       1.11       5.70       6.50
C       1.38       4.37       8.50
C       0.99       3.39       2.10
C       0.94       2.16       1.31
O       0.16       7.42       8.97
O       2.46       7.27       9.03
O       2.06       1.58       1.01
O      -0.23       1.73       0.96
