134

Cd      11.27       7.88       7.95
Cd       8.95      11.05       2.26
Cd      14.13       7.30      14.59
Cd       4.87       2.50       0.31
Cd       2.16       5.30       5.99
Cd       7.33       1.56      10.14
Cd       4.49       5.33       8.54
Cd       6.78       2.20      14.25
Cd       1.58       5.97       1.90
Cd      10.91      10.75      16.22
Cd      13.59       7.96      10.48
Cd       8.39      11.71       6.35
Cd      10.25       2.62       4.12
Cd       5.49      10.66      12.37
H       8.86       8.72       9.71
H       7.24       8.36       8.83
H       8.87       6.77       6.08
H       7.36       7.59       6.62
H       6.82       7.02      15.05
H       7.46       8.56      15.92
H       6.38       4.69       2.18
H       5.84       6.31       1.63
H       7.07       5.16       6.58
H       8.50       4.92       7.65
H       6.73       5.95      10.61
H       8.44       5.68       9.87
H       8.28       6.16       1.66
H       8.26       4.72       0.59
H       9.94       8.64      14.13
H       9.90       6.92      14.87
C      11.74       5.36      15.07
C       9.97       2.68       1.10
C      10.96       7.89       3.49
C      12.52       5.33      16.36
C       8.32       8.25       8.89
C      10.42       8.06       2.11
C      10.77       8.49       4.74
C       9.08       1.59       1.54
C       8.21       6.95       6.93
C      10.01       9.66       5.24
C       9.66       3.58       9.67
C      10.25       2.87       7.15
C       4.93       2.79       4.76
C       9.57       2.81       8.37
C       7.39       7.47      15.86
C       4.86       3.33       6.16
C       4.37       3.10       3.51
C      11.48       3.55       6.72
C       6.31       5.37       1.32
C       3.35       4.06       3.02
C       3.95       7.94       1.43
C       5.73      10.61      15.40
C       4.72       5.33      13.01
C       3.17       7.97       0.13
C       7.66       5.58       7.41
C       5.25       5.17      14.41
C       4.89       4.71      11.77
C       6.62      11.70      14.96
C       7.36       5.80       9.73
C       5.65       3.54      11.27
C       6.05       9.71       6.82
C       5.47      10.42       9.34
C      10.86      10.53      11.73
C       6.14      10.49       8.12
C       7.76       5.67       0.84
C      10.93       9.99      10.33
C      11.44      10.25      12.98
C       4.24       9.74       9.78
C       9.97       8.00      15.01
C      12.46       9.29      13.47
N      11.53       7.80       5.64
N      11.46       4.27       1.37
N      12.16       6.83       4.98
N       8.98       7.60       7.99
N      10.79       3.30       2.00
N      11.84       6.87       3.70
N      11.08       4.29       0.09
N       4.91       2.23       2.62
N       8.42       1.70       6.86
N       5.74       1.42       3.27
N       5.54       4.71       0.26
N       9.50       2.18       6.24
N       5.77       1.75       4.56
N       8.45       2.08       8.14
N       4.16       5.42      10.86
N       4.28       9.00      15.11
N       3.57       6.42      11.51
N       6.78       5.72       8.58
N       4.94       9.97      14.48
N       3.89       6.38      12.80
N       4.64       8.99      16.39
N      10.87      11.09      13.88
N       7.31      11.57       9.63
N      10.00      11.86      13.23
N      10.14       8.55      16.16
N       6.23      11.10      10.25
N       9.98      11.54      11.94
N       7.27      11.21       8.35
O      12.35       5.90      14.08
O       9.33       8.75       1.95
O       9.45      10.48       4.43
O       8.86       1.50       2.82
O      11.01       7.47       1.18
O      10.55       4.99      15.12
O       7.63      10.69       0.46
O       9.95       9.82       6.49
O       8.53       0.81       0.73
O       9.02       3.06      10.66
O       4.33       4.51       6.35
O       2.65       4.76       3.81
O      11.63       3.75       5.43
O       5.38       2.66       7.07
O      10.23       4.69       9.63
O       2.73       6.55       7.79
O       3.20       4.12       1.76
O      12.34       3.95       7.53
O       3.32       7.42       2.42
O       6.32       4.46      14.60
O       6.25       2.75      12.06
O       6.87      11.78      13.68
O       4.67       5.80      15.32
O       5.15       8.29       1.38
O       8.10       2.58      16.03
O       5.67       3.39      10.01
O       7.14      12.49      15.77
O       6.67      10.25       5.83
O      11.45       8.81      10.14
O      13.12       8.56      12.66
O       4.10       9.53      11.06
O      10.38      10.65       9.43
O       5.52       8.59       6.87
O      13.01       6.68       8.72
O      12.62       9.23      14.72
O       3.38       9.33       8.96
