27

Co       7.80       4.70       1.37
Co       5.51      10.23      -1.37
Co       6.66       7.47      -0.00
C       5.91      13.23      -1.32
C       7.44      12.34      -2.61
C       6.39      10.48       1.01
C       3.58       8.33      -0.45
C       6.89       6.83       3.05
N       6.98       2.88       1.82
N       6.33      12.06      -1.82
O       6.54       5.31      -0.09
O       7.88       3.68      -0.77
O       6.92       7.52      -2.04
O       5.74       9.19      -3.01
O       8.79       7.42       0.16
O       9.59       5.42       0.92
O       6.77       9.62       0.09
O       5.43      11.26       0.77
O       6.39       7.42       2.03
O       7.57       5.75       3.01
O       4.52       7.52      -0.15
O       3.72       9.52      -0.92
C       7.40       1.71       1.32
C       5.87       2.60       2.62
C       6.92       4.45      -1.01
C       9.72       6.60       0.45
C       6.42       8.10      -3.05
