14

Cu      27.84      11.57      15.20
O      26.19      12.62      15.59
O      27.28      14.63      15.63
Cu      29.00      13.73      15.32
C      28.00      12.98      12.77
O      28.15      11.33      17.13
O      29.17      13.37      17.27
C      26.22      13.90      15.66
O      29.61      10.75      14.84
O      30.68      12.76      15.04
C      28.76      12.26      17.76
C      30.66      11.48      14.91
O      28.69      13.87      13.37
O      27.56      11.89      13.29
