12

C       4.94      12.90       0.42
Cd       4.70      14.84       3.06
N       3.91      13.79       1.06
C       2.50      16.41       3.56
N       6.23      16.15       4.16
C       7.49      15.75       4.41
O       2.78      15.42       4.31
C       3.29      14.64       0.00
C       2.83      12.90       1.63
C       6.11      12.48       3.71
O       4.93      12.80       4.12
C       5.83      17.35       4.61
