896

C       5.94       4.93      58.77
C       6.41       5.96      57.92
C       7.62       5.84      57.22
C       8.38       4.66      57.37
C       8.01       3.65      58.30
C       6.74       3.77      58.94
C       4.68       5.10      59.42
C       4.38       6.30       0.07
C       3.19       6.39       0.83
C       2.25       5.33       0.79
C       2.48       4.16       0.03
C       3.72       4.07      59.41
C      16.99      24.89       1.07
C      17.46      23.86       1.92
C      18.67      23.98       2.63
C      19.43      25.16       2.48
C      19.06      26.16       1.55
C      17.79      26.05       0.91
C      15.73      24.72       0.43
C      15.43      23.52      59.78
C      14.24      23.44      59.01
C      13.30      24.49      59.05
C      13.53      25.66      59.81
C      14.77      25.75       0.44
C      11.45      16.09      50.02
C      11.92      16.95      51.04
C      13.13      17.66      50.92
C      13.88      17.50      49.74
C      13.52      16.57      48.74
C      12.25      15.93      48.86
C      10.20      15.44      50.20
C       9.89      14.73      51.39
C       8.71      13.97      51.48
C       7.77      14.00      50.43
C       8.00      14.76      49.26
C       9.23      15.45      49.16
C       0.40      13.73       9.83
C       0.87      12.87       8.80
C       2.08      12.16       8.93
C       2.84      12.32      10.10
C       2.47      13.25      11.11
C       1.21      13.89      10.99
C      21.24      14.38       9.65
C      20.94      15.09       8.46
C      19.76      15.86       8.37
C      18.82      15.82       9.42
C      19.04      15.06      10.59
C      20.28      14.37      10.69
C      15.96      54.80       1.02
C      15.46      53.78       1.87
C      14.23      53.90       2.54
C      13.46      55.06       2.32
C      13.85      56.05       1.38
C      15.15      55.95       0.80
C      17.23      54.63       0.42
C      17.55      53.45      59.76
C      18.76      53.36      59.04
C      19.72      54.39      59.17
C      19.49      55.53      59.97
C      18.21      55.64       0.51
C       4.91      35.08      58.83
C       4.42      36.10      57.98
C       3.18      35.98      57.31
C       2.42      34.81      57.53
C       2.80      33.83      58.47
C       4.10      33.93      59.04
C       6.18      35.25      59.43
C       6.50      36.43       0.10
C       7.72      36.51       0.82
C       8.68      35.49       0.68
C       8.44      34.35      59.94
C       7.16      34.24      59.34
C      10.48      43.76       9.89
C      10.00      42.91       8.87
C       8.79      42.21       8.99
C       8.04      42.36      10.17
C       8.41      43.29      11.18
C       9.68      43.92      11.06
C      11.74      44.40       9.72
C      12.04      45.11       8.52
C      13.23      45.87       8.43
C      14.17      45.82       9.48
C      13.95      45.06      10.65
C      12.71      44.38      10.74
C      21.53      46.12      49.96
C      21.05      46.96      50.99
C      19.83      47.67      50.86
C      19.08      47.51      49.68
C      19.46      46.59      48.67
C      20.73      45.96      48.79
C       0.69      45.48      50.13
C       0.99      44.76      51.32
C       2.18      44.01      51.42
C       3.12      44.05      50.37
C       2.90      44.81      49.20
C       1.66      45.50      49.10
C      16.97      34.95      28.71
C      17.46      35.97      27.87
C      18.67      35.85      27.17
C      19.42      34.67      27.32
C      19.04      33.66      28.24
C      17.77      33.78      28.88
C      15.72      35.13      29.36
C      15.42      36.32      30.07
C      14.23      36.41      30.83
C      13.29      35.37      30.78
C      13.51      34.19      30.02
C      14.74      34.10      29.34
C       5.93      54.93      31.13
C       6.41      53.91      31.98
C       7.63      54.03      32.68
C       8.37      55.21      32.52
C       8.00      56.22      31.60
C       6.73      56.10      30.97
C       4.67      54.75      30.49
C       4.37      53.56      29.78
C       3.18      53.47      29.02
C       2.24      54.52      29.06
C       2.46      55.69      29.82
C       3.70      55.78      30.51
C       0.45      46.09      20.07
C       0.94      46.94      21.09
C       2.18      47.61      20.96
C       2.95      47.40      19.80
C       2.56      46.45      18.82
C       1.26      45.88      18.92
C      21.28      45.49      20.25
C      20.96      44.77      21.43
C      19.75      44.04      21.51
C      18.79      44.17      20.49
C      19.02      44.97      19.34
C      20.30      45.57      19.23
C      11.50      43.79      39.77
C      12.00      42.94      38.76
C      13.23      42.27      38.88
C      14.00      42.48      40.04
C      13.61      43.43      41.03
C      12.31      44.00      40.93
C      10.23      44.39      39.60
C       9.92      45.12      38.42
C       8.70      45.84      38.34
C       7.74      45.71      39.36
C       7.97      44.91      40.51
C       9.25      44.31      40.62
C       4.92      24.78      31.08
C       4.42      23.77      31.93
C       3.19      23.89      32.60
C       2.43      25.06      32.39
C       2.82      26.05      31.45
C       4.12      25.94      30.87
C       6.19      24.61      30.48
C       6.50      23.43      29.75
C       7.72      23.34      29.03
C       8.68      24.35      29.17
C       8.45      25.50      29.96
C       7.18      25.62      30.57
C      15.97       5.04      28.77
C      15.47       6.05      27.92
C      14.24       5.92      27.25
C      13.48       4.76      27.46
C      13.87       3.77      28.40
C      15.17       3.88      28.98
C      17.24       5.21      29.37
C      17.55       6.39      30.10
C      18.76       6.48      30.82
C      19.73       5.47      30.68
C      19.50       4.32      29.88
C      18.23       4.20      29.28
C      21.48      13.75      39.85
C      20.98      12.91      38.83
C      19.75      12.25      38.95
C      18.99      12.46      40.12
C      19.38      13.39      41.11
C      20.68      13.96      41.00
C       0.66      14.35      39.67
C       0.98      15.08      38.49
C       2.19      15.79      38.40
C       3.16      15.65      39.42
C       2.93      14.85      40.57
C       1.65      14.25      40.68
C      10.43      16.07      20.01
C       9.93      16.91      21.03
C       8.69      17.57      20.90
C       7.93      17.36      19.73
C       8.33      16.43      18.74
C       9.63      15.86      18.85
C      11.71      15.47      20.18
C      12.02      14.74      21.35
C      13.24      14.03      21.44
C      14.20      14.17      20.43
C      13.97      14.97      19.28
C      12.69      15.57      19.17
C      21.36      58.70       0.58
C       0.49      59.85      58.90
C       0.71       0.90      59.75
C      21.62      59.80       1.46
C       1.46       2.03      59.37
C      20.55      57.56       0.84
C      10.31      31.18      59.27
C      11.54      30.03       0.94
C      11.76      28.92       0.10
C      10.57      30.08      58.39
C      12.51      27.79       0.48
C       9.51      32.32      59.01
C       4.80      14.19      43.73
C       6.01      15.93      44.89
C       6.23      15.09      45.99
C       5.06      13.31      44.83
C       6.97      15.48      47.13
C       4.00      13.92      42.59
C      15.85      15.63      16.12
C      17.06      13.89      14.97
C      17.28      14.73      13.86
C      16.10      16.51      15.02
C      18.02      14.34      12.72
C      15.04      15.90      17.26
C       0.79      31.14       0.08
C      21.46      29.58      58.97
C      21.08      28.96       0.12
C       0.41      30.53       1.32
C      20.18      27.88       0.19
C       1.70      32.22      59.96
C      11.84      58.74      59.76
C      10.41       0.23       0.87
C      10.03       0.85      59.73
C      11.46      59.36      58.53
C       9.13       1.94      59.65
C      12.75      57.66      59.95
C      17.38      15.08      43.79
C      15.94      13.91      45.34
C      15.56      15.13      45.95
C      16.99      16.31      44.40
C      14.65      15.20      47.03
C      18.29      14.89      42.72
C       6.33      14.74      16.06
C       4.89      15.91      14.50
C       4.51      14.70      13.89
C       5.94      13.51      15.45
C       3.60      14.62      12.81
C       7.24      14.93      17.13
C      17.15      45.62      16.17
C      15.94      43.88      15.02
C      15.72      44.72      13.91
C      16.89      46.49      15.07
C      14.97      44.33      12.77
C      17.95      45.88      17.31
C       6.10      44.26      43.68
C       4.89      46.00      44.83
C       4.67      45.16      45.94
C       5.85      43.38      44.78
C       3.92      45.54      47.07
C       6.91      43.99      42.54
C       4.58      44.76      16.15
C       6.02      45.93      14.60
C       6.40      44.72      13.98
C       4.97      43.53      15.54
C       7.30      44.64      12.90
C       3.67      44.95      17.22
C      15.63      45.11      43.70
C      17.06      43.95      45.26
C      17.44      45.16      45.87
C      16.01      46.35      44.31
C      18.34      45.23      46.96
C      14.72      44.92      42.63
C      10.33      28.67      30.61
C      11.53      29.82      28.86
C      11.75      30.93      29.70
C      10.59      29.77      31.48
C      12.48      32.07      29.31
C       9.53      27.53      30.88
C      21.38       1.15      29.24
C       0.48       0.00      30.99
C       0.70      58.95      30.15
C      21.63       0.05      28.37
C       1.44      57.81      30.54
C      20.58       2.29      28.96
C      11.85       1.10      30.10
C      10.40      59.62      28.94
C      10.02      59.01      30.15
C      11.47       0.50      31.33
C       9.11      57.93      30.24
C      12.77       2.17      29.90
C       0.80      28.72      29.75
C      21.44      30.26      30.91
C      21.07      30.87      29.69
C       0.42      29.32      28.51
C      20.16      31.95      29.61
C       1.72      27.65      29.95
C       8.91      10.93      53.53
C       8.32      10.50      55.81
C       8.36       9.11      55.59
C       8.95       9.53      53.28
C       8.02       8.15      56.58
C       9.21      11.92      52.58
C      19.97      18.90       6.32
C      19.37      19.32       4.04
C      19.40      20.71       4.26
C      20.00      20.29       6.57
C      19.07      21.67       3.27
C      20.26      17.91       7.28
C      14.43      21.37      55.98
C      13.83      19.09      55.57
C      13.87      19.31      54.18
C      14.47      21.61      54.58
C      13.53      18.31      53.23
C      14.74      22.34      56.97
C       3.38       8.45       3.86
C       2.78      10.73       4.27
C       2.82      10.51       5.67
C       3.42       8.21       5.26
C       2.48      11.51       6.62
C       3.68       7.49       2.88
C      13.03      48.90       6.36
C      13.58      49.27       4.06
C      13.54      50.67       4.25
C      13.00      50.30       6.58
C      13.85      51.61       3.23
C      12.75      47.92       7.34
C       1.98      40.98      53.49
C       2.53      40.60      55.79
C       2.49      39.21      55.60
C       1.95      39.57      53.27
C       2.80      38.27      56.62
C       1.70      41.95      52.50
C       7.53      38.52       3.90
C       8.11      40.80       4.33
C       8.06      40.58       5.72
C       7.47      38.27       5.30
C       8.38      41.58       6.68
C       7.24      37.56       2.90
C      18.58      51.36      55.96
C      19.17      49.08      55.53
C      19.11      49.30      54.13
C      18.53      51.60      54.56
C      19.43      48.30      53.18
C      18.29      52.32      56.95
C      19.94      40.96      23.51
C      19.35      40.52      25.79
C      19.41      39.13      25.56
C      20.00      39.56      23.25
C      19.08      38.16      26.55
C      20.23      41.96      22.55
C       8.90      48.93      36.34
C       8.31      49.36      34.06
C       8.37      50.75      34.29
C       8.95      50.32      36.59
C       8.04      51.72      33.30
C       9.19      47.93      37.30
C       3.39      51.41      25.98
C       2.84      49.11      25.60
C       2.88      49.31      24.20
C       3.42      51.64      24.58
C       2.56      48.30      23.26
C       3.67      52.39      26.96
C      14.43      38.47      33.86
C      13.89      40.77      34.25
C      13.93      40.57      35.64
C      14.46      38.25      35.26
C      13.61      41.59      36.59
C      14.72      37.49      32.88
C       2.01      18.86      36.39
C       2.55      19.26      34.09
C       2.49      20.65      34.29
C       1.95      20.27      36.61
C       2.80      21.60      33.27
C       1.73      17.88      37.36
C      13.04      10.95      23.46
C      13.59      10.56      25.76
C      13.54       9.16      25.56
C      12.99       9.55      23.24
C      13.84       8.22      26.58
C      12.77      11.93      22.48
C      18.56       8.48      33.90
C      19.10      10.78      34.31
C      19.04      10.57      35.70
C      18.50       8.25      35.30
C      19.35      11.58      36.65
C      18.28       7.51      32.91
C       7.51      21.33      25.95
C       8.05      19.03      25.54
C       7.99      19.24      24.15
C       7.46      21.57      24.55
C       8.30      18.23      23.20
C       7.24      22.30      26.94
H       5.81       6.76      57.72
H       9.28       4.59      56.88
H       1.41       5.41       1.37
H       3.94       3.21      58.90
H       6.13       1.99      59.17
H       4.96       8.07      59.81
H       0.92       3.20       0.84
H       2.14       7.89       1.65
H       8.41       6.49      55.50
H       9.52       2.45      57.77
H      16.86      23.06       2.12
H      20.32      25.23       2.97
H      12.46      24.42      58.48
H      14.99      26.61       0.95
H      17.18      27.83       0.68
H      16.02      21.75       0.04
H      11.97      26.62      59.01
H      13.19      21.93      58.20
H      19.46      23.33       4.35
H      20.57      27.37       2.08
H      11.32      17.15      51.85
H      14.78      17.99      49.67
H       6.93      13.42      50.51
H       9.45      15.96      48.31
H      11.64      15.69      47.08
H      10.49      15.06      53.17
H       6.44      13.95      48.30
H       7.67      13.14      52.99
H      13.91      19.38      51.56
H      15.03      17.09      47.54
H       0.27      12.67       8.00
H       3.73      11.83      10.18
H      17.98      16.40       9.35
H      20.49      13.86      11.54
H       0.59      14.13      12.77
H      21.53      14.77       6.68
H      17.49      15.87      11.55
H      18.72      16.67       6.86
H       2.86      10.44       8.29
H       3.99      12.73      12.31
H      16.06      52.98       2.10
H      12.55      55.13       2.77
H      20.60      54.31      58.65
H      17.97      56.49       1.02
H      15.76      57.73       0.58
H      16.92      51.68      60.03
H      21.15      56.45      59.36
H      19.82      51.88      58.19
H      13.41      53.29       4.26
H      12.28      57.23       1.78
H       5.02      36.90      57.75
H       1.50      34.75      57.07
H       9.55      35.57       1.20
H       6.92      33.39      58.83
H       4.71      32.15      59.27
H       5.87      38.20      59.89
H      10.11      33.43       0.49
H       8.77      38.00       1.66
H       2.37      36.59      55.59
H       1.24      32.65      58.06
H      10.59      42.72       8.05
H       7.14      41.88      10.24
H      15.02      46.39       9.40
H      12.49      43.87      11.60
H      10.31      44.14      12.84
H      11.44      44.80       6.75
H      15.51      45.86      11.60
H      14.27      46.67       6.91
H       8.00      40.49       8.34
H       6.91      42.76      12.38
H      21.64      47.16      51.79
H      18.19      48.00      49.61
H       3.97      43.48      50.45
H       1.44      46.01      48.25
H      21.35      45.74      47.01
H       0.39      45.07      53.10
H       4.46      44.02      48.24
H       3.22      43.21      52.94
H      19.04      49.39      51.51
H      17.95      47.12      47.47
H      16.86      36.78      27.67
H      20.32      34.60      26.84
H      12.44      35.45      31.35
H      14.96      33.24      28.83
H      17.14      32.00      29.10
H      16.02      38.09      29.76
H      11.95      33.24      30.83
H      13.20      37.93      31.64
H      19.47      36.51      25.45
H      20.55      32.46      27.72
H       5.82      53.09      32.17
H       9.27      55.28      33.01
H       1.39      54.44      28.49
H       3.92      56.64      31.02
H       6.10      57.88      30.75
H       4.98      51.79      30.08
H       0.90      56.64      29.02
H       2.15      51.95      28.22
H       8.42      53.37      34.40
H       9.51      57.42      32.12
H       0.35      47.17      21.89
H       3.86      47.85      19.74
H      17.91      43.65      20.57
H      20.54      46.08      18.38
H       0.66      45.64      17.14
H      21.59      45.04      23.20
H      17.36      44.34      18.43
H      18.70      43.19      22.99
H       2.99      49.33      21.58
H       4.13      46.85      17.64
H      11.40      42.71      37.96
H      14.91      42.03      40.11
H       6.87      46.24      39.28
H       9.49      43.80      41.47
H      11.70      44.23      42.71
H      10.55      44.85      36.65
H       6.31      45.54      41.42
H       7.66      46.69      36.86
H      14.04      40.55      38.27
H      15.18      43.03      42.21
H       5.02      22.97      32.15
H       1.51      25.13      32.84
H       9.56      24.27      28.64
H       6.94      26.47      31.08
H       4.73      27.72      30.64
H       5.86      21.66      30.01
H      10.12      26.41      29.34
H       8.75      21.84      28.19
H       2.37      23.28      34.32
H       1.26      27.23      31.85
H      16.07       6.86      27.70
H      12.56       4.69      27.01
H      20.60       5.55      31.21
H      17.99       3.35      28.77
H      15.78       2.10      29.20
H      16.90       8.16      29.84
H      21.17       3.41      30.51
H      19.80       7.98      31.66
H      13.42       6.54      25.53
H      12.31       2.59      28.00
H      21.58      12.69      38.02
H      18.07      12.01      40.19
H       4.04      16.17      39.33
H       1.41      13.74      41.53
H      21.30      14.18      42.79
H       0.33      14.82      36.73
H       4.60      15.46      41.48
H       3.24      16.63      36.91
H      18.92      10.53      38.32
H      17.82      12.99      42.29
H      10.52      17.13      21.83
H       7.02      17.81      19.67
H      15.08      13.65      20.51
H      12.45      16.08      18.32
H      10.25      15.65      17.06
H      11.37      14.99      23.12
H      15.64      14.36      18.38
H      14.28      13.19      22.94
H       7.87      19.28      21.53
H       6.77      16.83      17.56
H       0.83      59.83      57.94
H      20.92      59.17       3.27
H      21.55       0.63       3.28
H      11.88      30.05       1.90
H       9.85      30.70      56.58
H      10.49      29.18      56.58
H       6.34      16.90      44.86
H       4.35      11.49      44.21
H       4.99      11.50      45.73
H      17.39      12.92      14.99
H      15.40      18.33      15.64
H      16.04      18.32      14.12
H      21.11      29.27      58.07
H       1.42      31.56       2.77
H       0.46      30.35       3.34
H      10.06       0.54       1.78
H      12.48      58.33      57.08
H      11.53      59.54      56.51
H      15.58      13.01      45.66
H      18.03      17.76      43.38
H      17.06      18.34      44.58
H       4.53      16.81      14.19
H       6.97      12.06      16.47
H       6.01      11.48      15.27
H      15.60      42.91      15.04
H      17.58      48.32      15.70
H      16.95      48.31      14.17
H       4.55      46.96      44.80
H       6.56      41.56      44.17
H       5.92      41.57      45.69
H       6.38      46.83      14.28
H       3.94      42.08      16.56
H       4.90      41.51      15.36
H      17.42      43.04      45.57
H      14.99      47.80      43.28
H      15.95      48.37      44.49
H      11.86      29.79      27.89
H       9.92      29.14      33.31
H      10.54      30.67      33.30
H       0.81       0.03      31.95
H      20.94       0.66      26.54
H      21.57      59.20      26.55
H      10.04      59.30      28.04
H      12.52       1.51      32.78
H      11.54       0.32      33.36
H      21.08      30.58      31.81
H       1.48      28.31      27.07
H       0.50      29.50      26.49
H       8.08      10.89      56.72
H       9.27       9.47      51.27
H       9.13       7.98      51.99
H      19.13      18.93       3.13
H      20.33      20.36       8.58
H      20.19      21.85       7.86
H      13.59      18.18      55.97
H      14.81      23.62      54.51
H      14.66      22.90      53.02
H       2.54      11.64       3.87
H       3.76       6.20       5.33
H       3.61       6.92       6.82
H      13.81      48.86       3.15
H      12.72      50.40       8.59
H      12.84      51.88       7.84
H       2.75      41.02      56.70
H       1.66      39.47      51.25
H       1.78      38.00      52.01
H       8.36      41.71       3.93
H       7.14      36.26       5.36
H       7.26      36.99       6.85
H      19.41      48.17      55.92
H      18.20      53.62      54.49
H      18.32      52.89      53.01
H      19.11      40.91      26.70
H      20.31      39.51      21.24
H      20.20      38.02      21.96
H       8.07      48.97      33.15
H       9.28      50.38      38.61
H       9.16      51.87      37.89
H       2.62      48.20      26.01
H       3.71      53.65      24.49
H       3.58      52.91      23.01
H      13.67      41.68      33.84
H      14.75      36.23      35.36
H      14.63      36.97      36.83
H       2.78      18.85      33.18
H       1.67      20.36      38.63
H       1.77      21.84      37.88
H      13.82      10.97      26.67
H      12.70       9.45      21.22
H      12.80       7.98      21.97
H      19.32      11.69      33.91
H      18.21       6.23      35.39
H      18.31       6.97      36.87
H       8.27      18.12      25.95
H       7.18      23.59      24.47
H       7.28      22.85      22.99
N       1.58       3.13       0.11
N       2.99       7.41       1.71
N       8.04       6.80      56.34
N       8.89       2.62      58.49
N      12.63      26.69      59.74
N      14.04      22.41      58.13
N      19.09      23.01       3.51
N      19.94      27.20       1.36
N       7.09      14.68      48.23
N       8.52      13.09      52.51
N      13.54      18.54      51.88
N      14.40      16.37      47.71
N      18.14      15.14      11.62
N      19.57      16.74       7.35
N       2.49      11.28       7.97
N       3.35      13.45      12.14
N      20.44      56.52      60.02
N      18.98      52.37      58.13
N      13.80      52.96       3.43
N      12.95      57.05       1.10
N       9.40      33.36      59.89
N       7.93      37.51       1.73
N       2.76      36.92      56.42
N       1.91      32.83      58.75
N      14.86      45.13      11.67
N      13.43      46.74       7.40
N       8.36      41.33       8.02
N       7.54      43.48      12.22
N       3.81      44.74      48.17
N       2.38      43.13      52.44
N      19.41      48.54      51.83
N      18.58      46.40      47.64
N      12.60      33.17      30.10
N      14.03      37.44      31.70
N      19.10      36.82      26.30
N      19.92      32.62      28.44
N       1.55      56.71      29.75
N       2.99      52.45      28.14
N       8.05      53.06      33.55
N       8.87      57.25      31.40
N      18.07      45.01      18.36
N      19.54      43.13      22.51
N       2.60      48.50      21.91
N       3.46      46.17      17.82
N       7.02      44.87      41.49
N       8.50      46.75      37.34
N      13.65      41.38      37.93
N      14.51      43.71      42.03
N       9.41      26.48      30.01
N       7.92      22.34      28.12
N       2.76      22.95      33.48
N       1.93      27.05      31.16
N      20.46       3.34      29.84
N      18.96       7.48      31.73
N      13.81       6.87      26.36
N      12.98       2.77      28.69
N       3.89      14.80      41.55
N       2.40      16.70      37.40
N      19.31      11.37      38.00
N      18.49      13.68      42.11
N      14.93      15.02      18.30
N      13.45      13.11      22.44
N       8.26      18.45      21.85
N       7.44      16.15      17.74
N      21.87      58.81      59.38
N       0.22       0.79       0.95
N      21.28      59.91       2.77
N      10.83      31.07       0.47
N      11.27      29.03      58.90
N      10.23      29.97      57.08
N       5.30      15.45      43.84
N       5.75      13.83      45.89
N       4.73      12.00      44.94
N      16.35      14.37      16.01
N      16.79      15.99      13.97
N      15.77      17.82      14.91
N       0.24      30.61      59.02
N      21.63      29.49       1.25
N       0.80      30.85       2.57
N      11.28      59.26       0.83
N      10.58       0.34      58.60
N      11.86      59.04      57.27
N      16.82      13.95      44.32
N      16.11      16.25      45.44
N      17.40      17.57      44.08
N       5.77      15.87      15.53
N       5.06      13.57      14.41
N       6.35      12.25      15.77
N      16.64      44.36      16.06
N      16.20      45.98      14.01
N      17.22      47.80      14.96
N       5.60      45.52      43.78
N       5.15      43.89      45.83
N       6.18      42.07      44.90
N       5.14      45.89      15.62
N       5.85      43.59      14.50
N       4.56      42.27      15.86
N      16.19      43.99      44.23
N      16.89      46.28      45.35
N      15.61      47.60      43.99
N      10.83      28.77      29.35
N      11.27      30.83      30.96
N      10.26      29.88      32.79
N      21.88       1.05      30.50
N       0.22      59.06      28.89
N      21.31      59.99      27.06
N      11.28       0.58      28.98
N      10.58      59.53      31.28
N      11.88       0.81      32.59
N       0.23      29.24      30.87
N      21.63      30.35      28.57
N       0.84      29.01      27.26
N       8.59      11.34      54.79
N       8.66       8.71      54.33
N       9.18       8.95      52.08
N      19.65      18.48       5.07
N      19.71      21.12       5.52
N      20.23      20.88       7.77
N      14.11      20.12      56.40
N      14.18      20.57      53.77
N      14.70      22.81      53.99
N       3.06       9.70       3.44
N       3.13       9.26       6.08
N       3.65       7.01       5.85
N      13.33      48.46       5.11
N      13.26      51.10       5.51
N      12.79      50.91       7.77
N       2.28      41.42      54.74
N       2.21      38.77      54.34
N       1.74      38.97      52.08
N       7.85      39.77       3.48
N       7.75      39.32       6.12
N       7.24      37.07       5.88
N      18.90      50.10      56.37
N      18.80      50.56      53.73
N      18.29      52.81      53.97
N      19.62      41.36      24.76
N      19.72      38.73      24.30
N      20.23      38.98      22.05
N       8.58      48.52      35.09
N       8.68      51.15      35.55
N       9.19      50.90      37.80
N       3.10      50.16      26.42
N       3.16      50.57      23.78
N       3.62      52.83      23.98
N      14.14      39.73      33.43
N      14.20      39.31      36.07
N      14.66      37.05      35.86
N       2.31      18.43      35.13
N       2.20      21.07      35.55
N       1.73      20.87      37.81
N      13.34      11.38      24.71
N      13.25       8.74      24.30
N      12.78       8.95      22.04
N      18.85       9.74      33.48
N      18.76       9.31      36.12
N      18.29       7.05      35.90
N       7.81      20.08      26.38
N       7.71      20.51      23.74
N       7.25      22.77      23.96
O       6.29       2.77      59.74
O       5.32       7.28       0.21
O      17.34      27.05       0.10
O      16.37      22.54      59.64
O      11.80      15.11      47.86
O      10.84      14.60      52.37
O       0.75      14.70      11.99
O      21.88      15.22       7.48
O      15.63      56.94       0.01
O      16.60      52.48      59.56
O       4.58      32.93      59.84
O       5.55      37.39       0.29
O      10.15      44.72      12.06
O      11.10      45.26       7.55
O      21.19      45.16      47.79
O       0.05      44.61      52.30
O      17.31      32.78      29.68
O      16.36      37.29      30.22
O       6.26      57.10      30.17
O       5.32      52.59      29.63
O       0.78      45.07      17.93
O      21.91      44.58      22.39
O      11.83      44.80      41.92
O      10.87      45.31      37.46
O       4.60      26.93      30.07
O       5.54      22.47      29.55
O      15.65       2.88      29.78
O      16.59       7.35      30.30
O      21.17      14.75      42.00
O       0.02      15.28      37.54
O      10.12      15.07      17.85
O      11.06      14.53      22.31
O      19.89      57.48       2.01
O       1.99       2.05      58.12
O       8.85      32.41      57.83
O      13.04      27.77       1.72
O       3.34      12.74      42.51
O       7.49      16.73      47.15
O      14.38      17.07      17.34
O      18.54      13.09      12.70
O       2.25      32.81       0.99
O      19.71      27.38      59.08
O      13.29      57.07      58.86
O       8.66       2.43       0.76
O      18.84      15.97      42.12
O      14.17      14.04      47.53
O       7.79      13.85      17.72
O       3.12      15.78      12.31
O      18.61      47.06      17.39
O      14.45      43.09      12.76
O       7.56      42.81      42.45
O       3.39      46.79      47.09
O       3.12      43.87      17.81
O       7.78      45.81      12.40
O      14.17      46.01      42.04
O      18.82      44.07      47.45
O       8.87      27.45      32.06
O      13.00      32.08      28.05
O      19.93       2.38      27.78
O       1.96      57.80      31.79
O      13.32       2.77      30.99
O       8.63      57.43      29.07
O       2.26      27.05      28.86
O      19.67      32.44      30.78
O      10.28      11.71      51.77
O       7.70       8.60      57.82
O      21.33      18.11       8.09
O      18.75      21.22       2.03
O      15.81      23.14      56.75
O      13.21      17.07      53.68
O       4.76       6.69       3.09
O       2.16      12.75       6.16
O      11.70      48.15       8.16
O      14.19      51.13       2.01
O       0.64      41.72      51.68
O       3.14      38.75      57.84
O       6.18      36.74       3.11
O       8.70      42.81       6.23
O      17.23      53.13      56.74
O      19.75      47.06      53.62
O      21.29      41.75      21.74
O      18.77      38.60      27.79
O      10.25      48.13      38.12
O       7.72      51.27      32.06
O       4.72      53.21      26.74
O       2.22      47.07      23.73
O      15.77      36.67      33.11
O      13.28      42.81      36.11
O       0.68      18.10      38.19
O       3.13      21.13      32.05
O      11.72      11.71      21.65
O      14.18       8.69      27.80
O      17.24       6.68      33.13
O      19.68      12.81      36.19
O       6.20      23.14      26.73
O       8.63      17.00      23.66
