66

O       6.71       2.56      10.29
H       4.15       9.05      12.30
H       6.65       6.78      15.10
H       4.94       4.41       8.41
H       4.59      14.63      10.73
H       6.59      10.85      10.24
H       2.80      11.05      12.31
H       5.63       6.28       9.30
H       6.00       3.42      12.52
H       5.36       7.58      13.38
H       8.02       6.81      17.13
H       6.25       5.16      20.69
H       4.24       4.73      16.92
H       5.10       3.87       6.04
H       5.42      -0.29       4.99
H       5.78       0.91       9.11
C       2.47      13.73      12.14
C       3.60      12.92      11.60
C       4.63      13.55      10.89
C       5.69      12.80      10.39
C       5.74      11.42      10.61
C       4.70      10.78      11.30
C       3.63      11.53      11.78
C       6.83      13.45       9.67
C       5.34       8.44      10.72
C       5.45       7.06      11.28
C       5.62       6.01      10.36
C       5.81       4.70      10.80
C       5.85       4.43      12.17
C       5.68       5.46      13.10
C       5.48       6.78      12.65
C       5.66       5.05      14.54
C       6.12       5.79      16.85
C       7.20       6.28      17.61
C       7.23       6.07      18.99
C       8.37       6.58      19.80
C       6.21       5.33      19.62
C       5.14       4.84      18.86
C       4.02       4.09      19.50
C       5.09       5.09      17.49
C       6.04       3.52       9.90
C       5.45       2.52       7.70
C       5.23       2.84       6.36
C       5.20       1.83       5.39
C       5.42       0.49       5.74
C       5.64       0.18       7.09
C       5.63       1.19       8.07
C       4.94       2.27       3.98
C       5.88      -1.21       7.60
N       4.75       9.39      11.56
N       6.08       6.02      15.46
N       5.43       3.56       8.66
O       1.40      13.14      12.52
O       2.62      14.99      12.18
O       6.69      14.60       9.13
O       7.93      12.81       9.66
O       5.78       8.71       9.60
O       9.45       6.91      19.20
O       8.24       6.64      21.06
O       4.19       3.53      20.63
O       2.91       4.07      18.87
O       5.27       3.94      14.88
O       4.63       1.43       3.06
O       5.02       3.53       3.72
O       6.23      -2.17       6.83
O       5.76      -1.41       8.87
