29

H      11.93       7.55       9.86
H      14.35       7.57      10.43
H      14.59      11.47       8.60
H      12.15      11.31       8.13
H      16.28       9.36      11.01
H      16.70       8.89       9.34
H      16.20      10.90      12.31
H      15.54      15.14      12.48
H      16.59      13.29       8.73
N      11.93       9.44       9.00
O      15.39      13.98      14.65
O      15.94      11.79      14.59
O      16.17      16.77      10.60
O      16.31      15.78       8.62
C      12.55       8.41       9.62
C      13.90       8.43       9.93
C      14.68       9.55       9.59
C      14.04      10.59       8.90
C      12.68      10.51       8.64
C      16.14       9.62       9.95
O      16.72      10.89       9.62
C      16.39      11.97      10.43
C      16.15      11.85      11.80
C      15.80      14.26      11.91
C      16.09      14.37      10.54
C      16.38      13.22       9.80
C      16.17      15.70       9.89
C      15.85      13.01      12.54
C      15.69      12.91      14.02
