29

H       2.69       1.05       4.59
H       2.49       5.32       4.20
H       3.43       2.88       0.76
H       3.05       7.29       1.20
H       2.79       6.85       2.91
H       0.47       7.16       3.58
H      -1.97       6.80       3.09
H      -1.13       5.45      -0.74
H       1.32       5.72      -0.39
N      -1.65       6.10       1.16
O       3.48       0.39       0.75
O       3.54      -0.53       2.77
O       2.11       2.25       6.66
O       2.16       4.49       6.48
O       3.19       5.30       1.53
C       3.37       0.49       2.03
C       3.10       1.83       2.62
C       2.77       1.94       3.97
C       2.54       3.20       4.52
C       2.65       4.36       3.73
C       2.99       4.23       2.38
C       3.19       2.97       1.82
C       2.24       3.33       5.98
C       2.57       6.56       1.88
C       1.09       6.47       1.63
C       0.15       6.79       2.61
C      -1.21       6.59       2.34
C      -0.74       5.82       0.20
C       0.62       5.99       0.40
