29

C       9.11       7.43      10.01
C       8.83       6.09      10.60
C       8.51       5.98      11.96
C       8.28       4.72      12.51
C       8.39       3.56      11.72
C       8.72       3.68      10.37
C       8.93       4.95       9.80
C       7.97       4.59      13.97
C       8.31       1.35       9.86
C       6.82       1.45       9.62
C       5.88       1.13      10.60
C       4.53       1.33      10.33
C       5.00       2.10       8.19
C       6.36       1.93       8.39
H       8.42       6.87      12.58
H       8.23       2.59      12.19
H       9.16       5.04       8.74
H       8.78       0.63       9.18
H       8.52       1.07      10.90
H       6.21       0.76      11.57
H       3.76       1.11      11.08
N       4.08       1.82       9.15
H       7.06       2.20       7.60
H       4.60       2.47       7.25
O       9.22       7.53       8.73
O       9.27       8.45      10.76
O       7.84       5.67      14.65
O       7.90       3.42      14.47
O       8.93       2.62       9.52
