456

C     -14.42       8.70      22.96
C     -14.22       9.86      23.76
C     -15.26      10.39      24.56
C     -16.53       9.77      24.61
C     -16.73       8.62      23.81
C     -15.70       8.10      23.01
C     -17.59      10.28      25.37
C     -17.48      10.80      26.60
C     -18.55      11.28      27.36
C     -19.63      10.44      27.71
C     -20.67      10.88      28.58
C     -20.59      12.21      29.08
C     -19.54      13.08      28.73
C     -18.51      12.59      27.88
C     -19.46      14.37      29.26
C     -19.32      15.46      28.49
C     -19.09      16.76      28.95
C     -18.09      17.52      28.30
C     -19.89      17.40      29.92
C     -19.74      18.77      30.21
C     -18.78      19.55      29.51
C     -17.94      18.89      28.58
C     -21.68       9.98      28.93
C     -22.97      10.28      29.19
C     -23.96       9.31      29.35
C     -24.20       8.37      28.32
C     -24.82       9.30      30.47
C     -25.89       8.39      30.56
C     -26.16       7.47      29.51
C     -25.27       7.47      28.40
C      16.81      14.99       5.80
C      15.50      14.49       5.94
C      14.55      15.11       6.78
C      14.89      16.28       7.51
C      16.21      16.78       7.39
C      17.15      16.15       6.54
C      13.99      16.91       8.39
C      12.68      17.09       8.15
C      11.81      17.75       9.01
C      12.01      19.10       9.39
C      11.07      19.81      10.17
C       9.89      19.13      10.58
C       9.67      17.77      10.24
C      10.62      17.10       9.44
C       8.49      17.12      10.63
C       8.49      15.95      11.28
C       7.37      15.17      11.57
C       7.44      13.78      11.32
C       6.22      15.67      12.22
C       5.19      14.80      12.66
C       5.30      13.41      12.47
C       6.43      12.92      11.77
C      11.32      21.16      10.45
C      10.96      21.82      11.57
C      11.40      23.11      11.87
C      12.78      23.38      11.95
C      10.50      24.15      12.21
C      10.97      25.41      12.62
C      12.36      25.67      12.74
C      13.25      24.64      12.37
C      16.78       2.73      14.35
C      16.56       2.38      15.71
C      15.55       3.00      16.48
C      14.70       3.98      15.91
C      14.92       4.34      14.56
C      15.93       3.72      13.80
C      13.72       4.64      16.65
C      12.91       4.06      17.56
C      11.91       4.73      18.27
C      10.84       5.36      17.60
C       9.75       5.94      18.31
C       9.77       5.86      19.73
C      10.84       5.25      20.43
C      11.89       4.67      19.68
C      10.82       5.16      21.82
C      11.85       5.58      22.59
C      11.97       5.38      23.96
C      13.22       4.94      24.46
C      10.96       5.74      24.89
C      11.22       5.70      26.28
C      12.49       5.32      26.78
C      13.47       4.91      25.84
C       8.70       6.51      17.58
C       7.94       7.56      17.95
C       7.04       8.19      17.09
C       7.48       8.71      15.86
C       5.69       8.42      17.47
C       4.82       9.15      16.64
C       5.28       9.72      15.42
C       6.62       9.46      15.04
C     -14.38      20.96      14.41
C     -15.29      21.96      13.99
C     -16.25      22.50      14.87
C     -16.34      22.06      16.21
C     -15.44      21.06      16.64
C     -14.48      20.52      15.76
C     -17.31      22.54      17.10
C     -17.71      23.83      17.19
C     -18.65      24.29      18.10
C     -18.46      24.17      19.50
C     -19.35      24.75      20.44
C     -20.47      25.47      19.93
C     -20.71      25.59      18.54
C     -19.77      25.02      17.64
C     -21.79      26.33      18.07
C     -22.68      25.83      17.18
C     -23.69      26.55      16.55
C     -23.86      26.37      15.16
C     -24.64      27.33      17.25
C     -25.76      27.88      16.58
C     -25.97      27.64      15.20
C     -24.98      26.90      14.50
C     -19.06      24.63      21.80
C     -19.95      24.54      22.81
C     -19.60      24.23      24.12
C     -18.90      23.04      24.40
C     -20.02      25.03      25.21
C     -19.75      24.64      26.54
C     -19.08      23.43      26.83
C     -18.64      22.65      25.72
C     -13.37       8.18      22.12
C     -13.16       6.79      21.99
C     -12.15       6.28      21.15
C     -11.30       7.14      20.41
C     -11.51       8.53      20.54
C     -12.52       9.04      21.38
C     -10.31       6.67      19.54
C      -9.50       5.62      19.78
C      -8.50       5.18      18.91
C      -7.43       6.02      18.54
C      -6.35       5.55      17.76
C      -6.36       4.19      17.35
C      -7.43       3.33      17.68
C      -8.48       3.83      18.49
C      -7.42       1.99      17.30
C      -8.44       1.41      16.64
C      -8.56       0.05      16.36
C      -9.81      -0.57      16.60
C      -7.56      -0.71      15.71
C      -7.81      -2.03      15.27
C      -9.08      -2.62      15.46
C     -10.07      -1.88      16.16
C      -5.29       6.43      17.48
C      -4.54       6.45      16.36
C      -3.63       7.46      16.06
C      -4.08       8.80      15.99
C      -2.29       7.19      15.72
C      -1.42       8.22      15.30
C      -1.87       9.56      15.19
C      -3.21       9.83      15.57
C      17.78      14.33       4.96
C      18.69      15.07       4.17
C      19.66      14.43       3.36
C      19.75      13.02       3.31
C      18.85      12.28       4.12
C      17.88      12.92       4.92
C      20.72      12.35       2.56
C      21.11      12.70       1.32
C      22.06      12.00       0.57
C      21.86      10.65       0.21
C       2.17      -2.45      33.60
C       3.29      -1.73      33.10
C       3.52      -0.38      33.45
C      23.18      12.68       0.04
C       4.61       0.32      32.93
C       5.49       0.98      33.70
C       6.51       1.82      33.24
C       6.69       3.06      33.88
C       7.46       1.43      32.26
C       8.58       2.25      31.98
C       8.79       3.46      32.67
C       7.81       3.87      33.61
C       1.88      -3.77      33.25
C       2.77      -4.75      33.00
C       2.42      -6.09      32.84
C       1.72      -6.76      33.87
C       2.84      -6.84      31.72
C       2.57      -8.22      31.63
C       1.90      -8.90      32.67
C       1.46      -8.13      33.78
C     -13.41      20.40      13.51
C     -12.09      20.09      13.94
C     -11.15      19.52      13.06
C     -11.48      19.23      11.72
C     -12.80      19.52      11.29
C     -13.74      20.09      12.17
C     -10.59      18.62      10.83
C      -9.27      18.91      10.73
C      -8.40      18.32       9.82
C      -8.61      18.42       8.43
C      -7.66      17.93       7.49
C      -6.49      17.31       7.99
C      -6.26      17.17       9.38
C      -7.22      17.70      10.28
C      -5.09      16.59       9.86
C      -5.09      15.57      10.74
C      -3.96      15.04      11.38
C      -4.04      14.79      12.77
C      -2.81      14.60      10.68
C      -1.78      13.89      11.35
C      -1.90      13.59      12.73
C      -3.02      14.08      13.43
C      -7.91      18.12       6.13
C      -7.55      17.30       5.12
C      -7.99      17.46       3.81
C      -9.38      17.48       3.53
C      -7.09      17.49       2.72
C      -7.56      17.53       1.39
C      -8.95      17.51       1.10
C      -9.84      17.51       2.20
C      17.82       2.12      13.58
C      17.63       1.76      12.22
C      18.66       1.19      11.45
C      19.93       0.93      12.01
C      20.13       1.29      13.37
C      19.10       1.87      14.13
C      20.99       0.40      11.27
C      20.88      -0.60      10.37
C      21.95      -1.14       9.66
C      23.04      -1.76      10.32
C      24.07      -2.42       9.61
C      24.00      -2.44       8.20
C      22.94      -1.81       7.50
C      21.91      -1.19       8.25
C      22.86      -1.87       6.11
C      22.73      -0.78       5.34
C      22.49      -0.76       3.97
C      21.50       0.10       3.46
C       2.71      34.97       3.03
C       2.56      35.17       1.64
C      22.19      -0.34       1.15
C      21.35       0.31       2.08
C      25.08      -3.06      10.34
C      26.37      -3.20       9.98
C      27.36      -3.68      10.84
C      27.60      -3.03      12.07
C       7.64      31.70      10.46
C       8.71      31.30      11.29
C      29.56      -4.46      12.51
C      28.67      -3.42      12.89
C     -18.95      22.92      28.16
C     -18.89      23.12      30.54
C     -18.82      20.97      29.52
C       4.48      10.61      14.65
C       2.41      11.59      13.94
C       4.48      12.49      13.17
C     -27.33       6.66      29.49
C      12.65       5.54      30.48
C      12.88       5.58      28.12
C      12.86      26.88      13.32
C      12.72      29.17      13.99
C     -27.22      27.88      14.58
C      30.74      -4.71      13.28
C      12.02      30.40      13.99
C      -9.47      -3.79      14.75
C     -30.04       4.97      34.03
C      11.95       5.12      31.65
C      10.04       4.12      32.66
C      -1.07      10.59      14.61
C       0.99      11.59      13.94
C      -1.07      12.62      13.35
C       1.77     -10.33      32.69
C     -18.87      23.93      31.70
C       1.64     -12.28      34.07
H     -13.31      10.33      23.77
H     -15.07      11.23      25.10
H     -15.90       7.28      22.43
H     -17.64       8.15      23.80
H     -17.71      13.19      27.66
H     -19.65       9.48      27.36
H     -21.31      12.54      29.73
H     -23.62       8.36      27.47
H     -17.50      17.11      27.58
H     -17.26      19.43      28.03
H     -20.40      19.22      30.84
H     -20.66      16.88      30.37
H     -25.42       6.83      27.62
H     -26.52       8.45      31.36
H     -24.69       9.99      31.22
H     -19.30      15.33      27.50
H     -19.45      14.46      30.25
H     -18.50      10.23      24.96
H     -16.58      10.85      27.03
H     -23.26      11.23      29.17
H     -21.43       9.01      28.92
H      15.20      13.66       5.42
H      13.62      14.70       6.86
H      18.09      16.53       6.51
H      16.50      17.61       7.91
H      10.45      16.14       9.14
H      12.86      19.57       9.05
H       9.18      19.63      11.12
H      13.47      22.65      11.74
H       8.27      13.37      10.87
H       6.56      11.91      11.64
H       4.42      15.19      13.21
H       6.15      16.67      12.45
H      14.26      24.77      12.43
H      10.29      26.12      12.91
H       9.49      23.98      12.19
H       9.38      15.55      11.53
H       7.63      17.53      10.35
H      14.37      17.27       9.24
H      12.29      16.75       7.30
H      10.43      21.36      12.27
H      11.88      21.66       9.80
H      17.14       1.67      16.16
H      15.45       2.73      17.46
H      16.06       4.03      12.83
H      14.34       5.06      14.12
H      12.64       4.18      20.17
H      10.83       5.38      16.58
H       8.98       6.25      20.27
H       8.46       8.60      15.57
H      13.98       4.70      23.82
H      14.41       4.66      26.16
H      10.50       6.06      26.93
H      10.07       6.11      24.57
H       7.00       9.84      14.17
H       3.87       9.34      16.97
H       5.34       8.07      18.37
H      12.63       6.00      22.13
H      10.04       4.71      22.25
H      13.58       5.61      16.47
H      13.02       3.09      17.75
H       8.09       7.98      18.84
H       8.54       6.13      16.67
H     -15.25      22.32      13.03
H     -16.90      23.20      14.51
H     -13.87      19.78      16.11
H     -15.48      20.70      17.59
H     -19.91      25.15      16.63
H     -17.63      23.67      19.83
H     -21.11      25.92      20.59
H     -18.60      22.41      23.64
H     -23.21      25.79      14.62
H     -25.11      26.68      13.51
H     -26.48      28.35      17.13
H     -24.57      27.44      18.26
H     -18.15      21.76      25.87
H     -20.11      25.22      27.30
H     -20.55      25.89      25.04
H     -22.56      24.89      16.89
H     -21.87      27.28      18.36
H     -17.72      21.88      17.73
H     -17.31      24.50      16.58
H     -20.93      24.59      22.61
H     -18.10      24.53      22.04
H     -13.73       6.12      22.51
H     -12.05       5.26      21.06
H     -12.66      10.06      21.42
H     -10.94       9.20      20.02
H      -9.24       3.21      18.78
H      -7.43       6.99      18.88
H      -5.58       3.82      16.81
H      -5.05       9.04      16.20
H     -10.57      -0.05      17.05
H     -11.01      -2.26      16.29
H      -7.10      -2.51      14.72
H      -6.66      -0.28      15.48
H      -3.59      10.77      15.50
H      -0.47       7.97      15.01
H      -1.94       6.22      15.73
H      -9.22       1.98      16.40
H      -6.64       1.43      17.58
H     -10.18       7.17      18.69
H      -9.61       5.11      20.63
H      -4.69       5.76      15.66
H      -5.13       7.16      18.14
H      18.66      16.09       4.15
H      20.31      15.01       2.82
H      17.27      12.34       5.50
H      18.89      11.25       4.13
H      23.31      13.67       0.27
H      21.03      10.16       0.56
H       3.93      -2.19      32.45
H      22.01       6.15       0.45
H      26.62      15.78       0.35
H       7.93       4.72      34.15
H       9.30       1.89      31.34
H       7.39       0.52      31.81
H      21.56       3.83       0.31
H       2.93      -8.74      30.82
H       3.37      -6.39      30.97
H      25.96      13.34       0.43
H       4.69       0.37      31.94
H      21.12      11.53       2.96
H      20.71      13.50       0.90
H       3.75      -4.54      33.01
H       0.92      -4.03      33.26
H     -11.79      20.30      14.89
H     -10.22      19.30      13.42
H     -14.69      20.26      11.82
H     -13.09      19.30      10.33
H      -7.04      17.64      11.29
H      -9.45      18.90       8.09
H      -5.78      16.97       7.34
H     -10.06      17.43       4.29
H      -4.86      15.07      13.30
H      -3.16      13.86      14.42
H      -1.02      13.50      10.80
H      -2.74      14.71       9.67
H     -10.86      17.49       2.06
H      -6.88      17.50       0.62
H      -6.08      17.45       2.88
H      -5.97      15.20      11.03
H      -4.22      16.98       9.58
H     -10.96      17.95      10.20
H      -8.89      19.59      11.35
H      -7.02      16.48       5.32
H      -8.47      18.91       5.88
H      16.72       1.91      11.77
H      18.47       0.97      10.47
H      19.31       2.14      15.10
H      21.05       1.14      13.81
H      21.11      -0.77       7.76
H      23.05      -1.75      11.35
H       4.13      33.49       7.66
H      27.02      -2.24      12.36
H      20.91       0.65       4.10
H      20.67       1.01       1.77
H       3.22      34.73       1.00
H       3.47      34.37       3.36
H      28.82      -2.90      13.76
H       9.34      30.57      10.96
H       7.51      31.23       9.56
H      22.71       0.11       5.80
H       2.27      33.66       5.68
H      21.90       0.76      11.46
H      19.98      -0.98      10.18
H      26.67      -2.86       9.09
H      24.84      -3.38      11.26
N     -18.96      23.68      29.29
N     -18.84      21.75      30.64
N     -18.88      21.58      28.32
N       3.11      10.66      14.66
N       3.12      12.51      13.21
N       5.11      11.54      13.90
N     -28.04       6.27      30.59
N      12.19       5.22      29.23
N      14.02       6.30      28.28
N      12.19      28.07      13.36
N     -27.92      29.05      14.61
N      14.06      26.83      13.94
N      10.86      30.56      13.27
N      -8.79      -4.96      14.71
N      31.23      -3.70      14.03
N     -29.37       5.33      32.89
N      10.74       4.49      31.55
N      10.61       4.37      33.86
N       0.29      10.59      14.57
N       0.29      12.58      13.31
N      -1.71      11.61      13.99
N       1.78     -11.14      31.60
N     -18.92      23.38      32.95
N       1.70     -10.94      33.90
