20

H       5.27       7.71       5.29
H       1.84       7.57       1.72
C       2.26      10.04       2.43
C       2.95       8.83       3.04
C       3.93       8.86       4.05
C       4.51       7.67       4.52
C       4.11       6.43       4.02
C       3.11       6.40       3.02
C       2.58       7.59       2.51
C       4.45      10.13       4.66
C       4.75       5.19       4.59
C       2.57       5.14       2.47
O       1.55       9.90       1.44
O       2.49      11.24       2.96
O       3.71      10.77       5.46
O       5.65      10.41       4.36
O       4.08       4.57       5.48
O       5.91       4.90       4.18
O       2.70       4.00       3.00
O       1.92       5.30       1.35
