594

C      31.75      17.89      12.04
C      30.91      16.74      12.09
C      32.44      15.66      13.79
C      33.23      16.84      13.85
C      34.40      16.81      14.67
C      34.85      15.64      15.34
C      34.02      14.49      15.25
C      32.82      14.52      14.52
C      29.70      16.72      11.36
C      29.28      17.85      10.64
C      30.08      19.01      10.55
C      31.33      18.97      11.22
C      32.68      19.21      13.85
C      33.49      20.38      13.80
C      35.00      19.31      12.08
C      34.17      18.16      12.04
C       0.20      19.35      11.33
C       0.63      18.22      10.61
C      35.85      17.04      10.56
C      34.60      17.07      11.24
C      31.51      19.25      14.65
C      31.07      20.42      15.32
C      31.92      21.55      15.27
C      33.13      21.52      14.56
C      32.96      18.02      12.94
C      34.69      20.47      12.94
C      31.23      15.57      12.94
C      10.11      35.06      13.85
C      10.88      36.25      13.88
C       9.50      37.23      12.01
C       8.64      36.11      12.03
C       7.60      36.05      11.06
C       7.45      37.00      10.02
C       8.34      38.10      10.03
C       9.32      38.23      11.03
C      11.89      36.41      14.86
C      12.09      35.45      15.85
C      11.35      34.24      15.86
C      10.40      34.06      14.82
C       7.70      34.78      13.85
C       6.92      33.60      13.87
C       8.32      32.60      12.02
C       9.18      33.74      12.03
C       8.52      31.58      11.06
C       9.49      31.71      10.06
C      10.35      32.83      10.02
C      10.21      33.80      11.05
C       7.41      35.77      14.84
C       6.46      35.59      15.87
C       5.68      34.40      15.82
C       5.89      33.44      14.82
C       8.91      34.92      12.94
C       7.17      32.47      12.94
C      10.64      37.37      12.94
C      19.75      14.58       5.96
C      18.91      15.10       4.94
C      20.44      14.17       3.16
C      21.23      13.53       4.15
C      22.40      12.84       3.71
C      22.84      12.84       2.36
C      22.02      13.49       1.42
C      20.82      14.11       1.80
C      17.70      15.74       5.29
C      17.27      15.81       6.62
C      18.08      15.31       7.67
C      19.33      14.74       7.31
C      20.68      12.35       6.21
C      21.49      11.80       7.23
C      23.00      13.83       7.17
C      22.17      14.44       6.19
C      24.19      14.46       7.58
C      24.63      15.65       6.97
C      23.85      16.28       5.97
C      22.60      15.68       5.65
C      19.51      11.63       5.84
C      19.07      10.46       6.52
C      19.92       9.94       7.51
C      21.13      10.58       7.84
C      20.96      13.73       5.63
C      22.69      12.50       7.75
C      19.22      14.95       3.50
C      22.11      38.36      19.93
C      22.88      37.74      20.94
C      21.50      38.87      22.73
C      20.63      39.41      21.74
C      19.59      40.28      22.18
C      19.44      40.70      23.52
C      20.33      40.14      24.47
C      21.31      39.22      24.09
C      23.89      36.82      20.60
C      24.09      36.44      19.26
C      23.35      37.03      18.21
C      22.40      38.02      18.58
C      19.70      38.50      19.68
C      18.91      39.08      18.65
C      20.32      41.18      18.72
C      21.17      40.60      19.69
C      20.51      42.52      18.31
C      21.49      43.32      18.92
C      22.35      42.80      19.92
C      22.20      41.42      20.24
C      19.41      37.15      20.05
C      18.46      36.35      19.37
C      17.68      36.98      18.37
C      17.88      38.33      18.04
C      20.90      39.22      20.26
C      19.17      40.44      18.14
C      22.64      37.99      22.38
C       7.75      21.49       6.13
C       6.91      22.11       7.09
C       8.44      24.12       7.18
C       9.23      23.59       6.14
C      10.40      24.31       5.76
C      10.84      25.47       6.43
C      10.02      25.97       7.47
C       8.82      25.33       7.81
C       5.70      21.49       7.48
C       5.27      20.30       6.86
C       6.08      19.65       5.90
C       7.33      20.24       5.60
C       8.68      22.40       4.08
C       9.49      21.78       3.09
C      11.00      20.82       4.88
C      10.17      21.36       5.90
C      12.19      20.15       5.22
C      12.62      20.09       6.56
C      11.85      20.64       7.60
C      10.60      21.21       7.25
C       7.51      23.07       3.64
C       7.07      23.07       2.29
C       7.93      22.47       1.34
C       9.13      21.86       1.73
C       8.96      22.21       5.56
C      10.69      20.98       3.44
C       7.22      23.44       7.68
C      34.11      31.45      19.75
C      34.88      30.88      18.70
C      33.50      28.77      18.79
C      32.63      29.35      19.75
C      31.60      28.54      20.29
C      31.45      27.16      19.98
C      32.34      26.62      19.02
C      33.31      27.42      18.41
C      -0.11      31.64      18.08
C       0.09      32.99      18.42
C      35.35      33.60      19.45
C      34.40      32.79      20.13
C      31.70      31.60      19.99
C      30.92      32.20      21.01
C      32.32      31.09      22.79
C      33.17      30.54      21.81
C      32.52      30.78      24.15
C      33.49      29.85      24.54
C      34.35      29.24      23.59
C      34.20      29.66      22.24
C      31.41      31.95      18.64
C      30.46      32.94      18.28
C      29.68      33.48      19.33
C      29.88      33.10      20.66
C      32.90      30.73      20.32
C      31.17      31.96      22.45
C      34.64      29.51      18.20
C      30.22      24.26      19.51
C      30.56      22.89      19.61
C      30.29      21.99      18.57
C      29.68      22.40      17.37
C      29.37      23.77      17.25
C      29.63      24.67      18.29
C      31.05      20.95      20.28
C      28.62      25.66      16.69
C      31.46      19.84      21.15
C      27.98      26.72      15.91
C      30.21      25.09      20.65
C      29.12      21.45      16.49
C       1.52      35.84      18.78
C       1.97      36.66      17.72
C       3.33      36.78      17.42
C       4.33      36.10      18.15
C       3.88      35.26      19.19
C       2.52      35.14      19.50
C       2.18      38.10      16.19
C       3.69      34.03      20.89
C       1.86      39.16      15.22
C       4.04      33.17      22.03
C       0.19      35.95      19.26
C       5.68      36.48      18.06
C      12.24      28.26       7.11
C      12.86      28.96       8.17
C      12.52      30.28       8.48
C      11.55      30.99       7.74
C      10.91      30.29       6.69
C      11.25      28.97       6.39
C      14.15      29.64       9.70
C       9.81      29.71       4.99
C      15.25      29.68      10.67
C       8.89      29.75       3.85
C      12.78      27.05       6.63
C      11.46      32.40       7.83
C       3.75      17.52       6.38
C       2.35      17.38       6.28
C       1.59      16.83       7.32
C       2.18      16.39       8.52
C       3.58      16.56       8.64
C       4.33      17.10       7.60
C       0.35      17.19       5.62
C       5.61      16.48       9.20
C      -0.83      17.21       4.74
C       6.83      16.23       9.97
C       4.53      17.79       5.23
C       1.48      15.55       9.41
C      18.23       4.92       7.74
C      18.56       5.52       6.50
C      18.30       6.87       6.24
C      17.68       7.70       7.20
C      17.37       7.12       8.45
C      17.64       5.77       8.71
C      19.06       5.92       4.49
C      16.62       6.66      10.36
C      19.46       5.72       3.09
C      15.98       6.80      11.68
C       6.23      37.45       7.89
C      17.12       8.94       6.82
C      13.52      33.70      18.14
C      13.97      34.22      19.38
C      15.33      34.42      19.64
C      16.32      34.12      18.68
C      15.88      33.63      17.43
C      14.52      33.43      17.18
C      14.18      34.81      21.39
C      15.69      32.78      15.52
C      13.85      35.13      22.79
C      16.04      32.22      14.21
C      12.19      33.23      17.99
C      17.68      34.00      19.06
C      36.24      13.66      17.42
C      36.86      12.39      17.48
C      36.52      11.47      18.48
C      35.55      11.75      19.46
C      34.91      13.00      19.38
C      35.24      13.93      18.39
C      38.15      10.73      17.31
C      33.81      14.77      19.73
C      39.25       9.87      16.86
C      32.89      15.73      20.33
C      36.78      14.69      16.61
C      23.46      44.91      20.64
C      27.76      19.66       8.47
C      26.35      19.82       8.40
C      25.59      19.19       7.41
C      26.18      18.37       6.42
C      27.58      18.18       6.50
C      28.34      18.81       7.50
C      24.35      20.48       8.57
C      29.61      17.74       6.16
C      23.17      21.23       9.02
C      30.83      17.19       5.55
C      28.54      20.51       9.28
C      25.48      18.03       5.25
C      18.21      41.74      26.27
C      18.55      42.52      27.41
C      18.28      42.07      28.71
C      17.67      40.82      28.95
C      17.36      40.03      27.82
C      17.63      40.48      26.53
C      19.04      44.06      28.76
C      16.62      38.60      26.47
C      19.45      45.37      29.29
C      15.98      37.39      25.93
C      18.21      42.32      24.98
C       5.12      23.55       0.82
C      25.52      35.33      16.60
C      25.97      34.00      16.43
C      27.32      33.67      16.48
C      28.32      34.65      16.69
C      27.88      35.97      16.90
C      26.52      36.30      16.85
C      26.17      31.96      15.94
C      27.69      38.06      17.11
C      25.85      30.59      15.52
C      28.04      39.48      17.29
C      24.19      35.69      16.27
C      29.68      34.38      16.40
C      36.23      29.00      29.01
C      36.85      29.57      27.87
C      36.52      29.18      26.58
C      35.54      28.18      26.33
C      34.90      27.63      27.46
C      35.24      28.03      28.75
C      38.15      30.55      26.52
C      33.80      26.45      28.81
C      39.25      31.37      26.00
C      32.87      25.44      29.34
C      24.78      12.21       0.91
C      35.45      27.56      25.06
C      15.75      16.78       9.28
C      14.34      16.76       9.45
C      13.59      17.93       9.41
C      14.18      19.20       9.19
C      15.57      19.22       8.99
C      16.33      18.04       9.03
C      12.35      16.28       9.94
C      17.60      19.74       8.77
C      11.17      15.51      10.36
C      18.82      20.54       8.60
C      16.53      15.64       9.61
C      13.47      20.38       9.48
H      31.65      22.44      15.69
H      33.69      22.37      14.50
H       0.81      20.16      11.38
H       1.56      18.26      10.20
H      34.04      16.21      11.24
H      30.89      18.44      14.65
H      35.00      17.63      14.68
H      34.31      13.60      15.64
H      32.27      13.65      14.46
H      31.92      19.81      11.20
H      29.07      15.92      11.43
H      28.34      17.82      10.24
H      34.58      21.34      12.29
H      35.55      20.65      13.60
H      31.34      14.71      12.28
H      30.38      15.39      13.61
H      35.87      15.04      10.42
H      29.18      19.78      15.46
H      36.71      16.35      15.55
H      30.13      21.00      10.33
H       5.01      34.18      16.55
H       5.34      32.58      14.85
H       7.89      30.78      11.03
H       9.50      31.01       9.33
H      10.79      34.63      11.02
H       8.00      36.61      14.87
H       6.99      35.22      11.05
H       8.34      38.79       9.28
H       9.96      39.03      10.98
H       9.83      33.22      14.83
H      12.43      37.28      14.90
H      12.74      35.67      16.60
H       7.34      31.57      13.54
H       6.27      32.32      12.34
H      11.55      37.51      12.36
H      10.47      38.28      13.53
H      11.41      34.08       8.85
H       7.27      37.00      17.03
H       6.32      35.78       8.91
H      10.57      32.77      16.98
H      19.65       9.14       8.08
H      21.69      10.20       8.61
H      24.81      14.01       8.26
H      25.56      15.98       7.21
H      22.04      16.11       4.91
H      18.89      12.04       5.13
H      23.00      12.41       4.42
H      22.31      13.59       0.45
H      20.27      14.59       1.09
H      19.91      14.34       8.05
H      17.07      16.09       4.56
H      16.34      16.16       6.80
H      22.57      12.63       8.83
H      23.55      11.84       7.58
H      19.33      15.95       3.09
H      18.37      14.47       3.01
H      23.87      17.40       4.30
H      17.18      10.67       5.89
H      24.71      12.30       2.87
H      18.13      14.50       9.51
H      17.02      36.46      17.81
H      17.33      38.73      17.28
H      19.88      42.95      17.63
H      21.50      44.31      18.68
H      22.79      41.03      20.97
H      20.01      36.71      20.75
H      18.99      40.70      21.47
H      20.33      40.45      25.44
H      21.96      38.86      24.80
H      21.83      38.44      17.84
H      24.43      36.34      21.33
H      24.74      35.68      19.08
H      19.33      40.38      17.06
H      18.26      41.03      18.31
H      23.55      38.43      22.80
H      22.46      37.03      22.87
H      23.40      43.18      21.58
H      19.29      34.63      20.00
H      18.32      42.28      23.02
H      22.58      36.81      16.38
H       7.66      22.38       0.36
H       9.69      21.39       1.02
H      12.81      19.79       4.49
H      13.55      19.71       6.73
H      10.03      21.64       7.98
H       6.89      23.48       4.35
H      11.00      23.91       5.03
H      10.31      26.76       8.04
H       8.27      25.70       8.59
H       7.91      19.81       4.88
H       5.07      21.95       8.14
H       4.33      19.97       7.08
H      10.57      19.98       3.02
H      11.55      21.46       2.96
H       7.33      23.29       8.76
H       6.37      24.10       7.51
H      11.86      21.51       9.41
H       5.18      23.53       2.79
H      12.71      25.31       5.71
H       6.12      18.47       4.28
H      29.02      34.24      19.16
H      29.34      33.56      21.39
H      31.89      31.15      24.87
H      33.50      29.56      25.52
H      34.79      29.21      21.53
H      32.01      31.56      17.90
H      30.99      28.95      21.01
H      32.34      25.63      18.81
H      33.96      26.98      17.74
H      33.83      33.22      20.86
H       0.43      31.25      17.30
H       0.74      33.53      17.84
H      31.34      32.93      22.93
H      30.27      31.52      22.87
H      35.55      28.93      18.37
H      34.47      29.56      17.12
H      35.41      27.61      23.10
H      31.28      33.24      16.48
H      30.32      26.81      21.60
H      34.58      35.30      20.17
H      31.35      18.88      20.64
H      30.83      19.84      22.04
H      32.50      19.98      21.45
H      27.99      27.67      16.45
H      26.94      26.45      15.71
H      28.51      26.85      14.96
H       2.76      39.55      14.75
H       1.34      39.97      15.73
H       1.21      38.75      14.45
H       3.14      32.85      22.56
H       4.68      33.72      22.72
H       4.57      32.29      21.67
H      15.32      30.66      11.14
H      16.19      29.46      10.16
H      15.08      28.93      11.44
H       8.88      28.80       3.32
H       9.19      30.54       3.17
H       7.88      29.96       4.21
H      -1.70      16.79       5.26
H      -0.63      16.61       3.85
H      -1.05      18.23       4.45
H       7.71      16.57       9.43
H       6.92      15.17      10.18
H       6.77      16.78      10.92
H      19.36       6.64       2.52
H      18.84       4.94       2.64
H      20.50       5.40       3.06
H       4.00      39.79      12.22
H      14.94       7.11      11.54
H      16.51       7.55      12.26
H      14.75      35.34      23.36
H      13.33      34.28      23.24
H      13.20      36.00      22.82
H      15.14      31.92      13.66
H      16.68      31.34      14.34
H      16.57      32.97      13.62
H      27.31      42.91      17.48
H      40.19      10.42      16.93
H      39.08       9.57      15.82
H      32.88      16.67      19.77
H      33.19      15.94      21.36
H      31.88      15.32      20.34
H      22.31      20.99       8.41
H      23.38      22.30       8.96
H      22.95      20.97      10.06
H      31.71      17.50       6.11
H      30.92      17.55       4.53
H      30.77      16.10       5.55
H       7.35      28.43       0.98
H      18.82      46.15      28.85
H      20.49      45.56      29.02
H      16.00      37.39      24.84
H      14.94      37.35      26.27
H      16.51      36.51      26.29
H      26.75      29.99      15.41
H      25.33      30.62      14.56
H      25.19      30.12      16.26
H      27.15      40.10      17.30
H      28.68      39.80      16.46
H      28.58      39.61      18.23
H      39.31      31.29      24.91
H      40.19      31.04      26.44
H      39.08      32.42      26.27
H      20.87       8.49       1.04
H      33.18      24.45      29.01
H      31.86      25.65      28.98
H      10.30      16.17      10.47
H      11.37      15.04      11.32
H      10.95      14.75       9.62
H      19.71      19.90       8.58
H      18.91      21.24       9.42
H      18.77      21.08       7.66
N      36.33      15.83      10.08
N      29.77      20.47      15.81
N      36.13      15.63      15.87
N      29.65      20.21      10.01
N      11.16      33.14       8.93
N       6.47      36.45      16.95
N       6.60      36.71       8.97
N      11.36      33.34      16.91
N      24.32      17.30       5.16
N      17.77      10.02       6.31
N      24.12      12.38       2.09
N      17.64      15.17       8.98
N      23.16      43.58      20.72
N      18.48      34.98      19.57
N      18.59      41.76      23.80
N      23.37      36.58      16.90
N      12.32      20.82       8.89
N       5.77      23.48       2.01
N      12.12      25.94       6.18
N       5.64      18.59       5.13
N      35.16      28.15      23.87
N      30.47      33.44      16.99
N      30.60      26.40      20.76
N      35.37      34.96      19.71
N      30.59      20.78      19.02
N      29.14      25.85      17.91
N       3.44      37.71      16.47
N       2.43      34.37      20.58
N      13.36      30.69       9.42
N      10.55      28.63       5.31
N       0.34      16.70       6.87
N       5.61      17.03       7.97
N      18.59       7.09       4.97
N       5.14      39.45       9.91
N      15.43      34.77      20.92
N      14.43      32.88      15.97
N      25.36      44.38      18.36
N      34.55      15.03      18.64
N      24.35      19.64       7.52
N      29.61      18.52       7.25
N       6.58      26.09       0.14
N      17.14      39.57      25.69
N      27.43      32.39      16.14
N      26.43      37.62      16.98
N      37.36      29.79      25.75
N      22.54      10.29       0.19
N      12.34      17.61       9.74
N      17.61      18.40       8.91
O      31.04      22.25      20.71
O      28.71      24.37      16.22
O      29.55      24.58      21.72
O      27.78      21.31      16.62
O       1.22      37.49      16.95
O       4.65      34.57      20.08
O      -0.21      37.22      19.51
O       6.07      37.30      19.07
O      13.90      28.52       8.94
O      10.01      30.80       5.81
O      14.11      27.09       6.37
O      12.09      33.05       6.82
O       1.58      17.62       5.18
O       4.37      16.14       9.67
O       4.27      17.00       4.17
O       1.79      14.23       9.27
O      19.05       4.89       5.40
O      16.71       7.71       9.48
O       5.55      36.79       6.91
O      15.77       8.89       6.64
O      13.21      34.46      20.49
O      16.65      33.21      16.40
O      11.79      32.38      18.97
O      18.08      32.72      19.24
O      37.89      11.94      16.72
O      34.00      13.52      20.26
O      38.11      14.88      16.77
O      24.09      45.46      21.70
O      25.58      20.65       9.16
O      28.37      17.51       5.63
O      28.28      21.83       9.11
O      25.79      18.80       4.18
O      19.03      43.79      27.42
O      16.71      38.83      27.81
O      17.54      43.50      24.90
O       3.78      23.75       0.88
O      25.21      32.92      16.09
O      28.65      37.08      17.05
O      23.79      35.28      15.04
O      30.08      34.85      15.20
O      37.89      30.45      27.87
O      33.99      26.61      27.46
O      26.11      11.98       0.99
O      36.09      26.36      25.01
O      13.58      15.69       9.79
O      16.36      20.32       8.84
O      16.27      15.13      10.84
O      13.78      20.92      10.69
