180

Ga       7.95      -2.00       6.52
Ga      -1.50      -1.96       7.35
Ga      -0.91       2.17       6.95
Ga       3.03       1.35       6.52
Ga       3.52      -0.07      10.29
Ga       7.48       0.43       9.88
Ga      -3.32       8.77       5.15
Ga       5.59       4.79       5.14
Ga       1.11       6.78       1.69
Fe       6.08       8.90       4.66
Fe       1.69       5.10       5.47
Fe      -2.77       6.35       1.88
P      10.58      -1.91       4.64
P       8.20       6.59       3.97
P       1.78       3.68       7.91
P       3.74       6.92       3.84
P       6.17      -1.86      11.18
P      -0.70       6.78       4.22
P      -5.89       8.74       7.25
P      -3.59       0.26       7.83
P       3.03       2.97       4.03
P       0.87      -0.15       8.16
P      -1.48       8.62       0.65
P       5.32      -0.26       7.76
H       8.10      -0.92       4.08
H       6.48      -0.79       4.69
H       7.93      -2.68       9.01
H       9.36      -3.22       8.33
H       3.30      10.61       3.17
H       1.67       9.04       4.27
H       0.77      10.39       4.94
H       5.70      -4.12       7.58
H       1.96       8.08       6.71
H       7.48      -4.95       8.99
H       4.20       8.47       7.59
H      -0.66       3.74       9.10
H      -2.29       3.18       8.96
H      -1.04       0.34       5.13
H       0.42       1.15       4.98
H      -1.06       5.57       7.73
H      -2.78       5.44       5.89
H      -3.66       4.19       6.76
H      -3.20       2.33       4.66
H      -2.56       3.79       3.83
H      -1.47       1.51       3.18
H      -0.33       2.79       3.69
H       4.01      -3.18      11.22
H       2.35      -2.89      10.67
H       3.34       2.43       9.88
H       4.88       2.09      10.42
H       7.76       4.88       1.36
H       5.47       5.98       1.41
H       0.85      -1.38      11.62
H       1.40       1.69      11.93
H       6.51       8.24       1.56
H       7.57      10.12       0.17
H       8.68       8.81       0.67
H      -3.74       8.01       8.39
H      -2.12       7.61       7.76
H      -3.23       9.58       2.73
H      -4.69      10.04       3.43
H       1.27      -3.28       8.37
H       3.50      -2.69       7.36
H      -0.60       9.21       6.89
H      -1.05      10.87       4.35
H       2.65      -1.45       5.37
H       1.55      -1.75       3.06
H       0.44      -1.77       4.46
H       5.17       2.44       2.81
H       6.84       3.15       2.85
H       5.73       6.46       7.04
H       4.25       5.65       7.11
H       5.70       1.23       4.80
H       7.92       1.71       5.90
H       8.28       3.00       4.69
H       7.86       4.35       7.33
H       7.14       2.84       7.96
H       6.10       5.02       8.87
H       4.95       3.84       8.16
H       0.68       9.97       0.66
H       2.32       9.65       1.26
H       1.25       4.27       2.14
H      -0.27       4.64       1.54
H      -3.09       1.84      10.60
H      -0.83       0.68      10.57
H       3.78       8.04       0.35
H       3.23       4.99       0.04
H      -1.90      -1.56      10.42
H      -2.93      -3.43      11.84
H      -4.06      -2.14      11.32
C       2.55      11.00       3.86
C       1.80      10.03       4.73
C       2.20       9.09       7.06
C       7.79      -4.53       8.02
C      -1.84       4.81       7.76
C      -2.63       4.54       6.51
C      -2.31       2.98       4.53
C      -1.13       2.13       4.02
C       7.05       4.79       0.54
C       5.94       5.77       0.43
C       6.63       8.18       0.47
C       7.81       9.05       0.06
C       1.95      -4.04       8.00
C       3.02      -3.63       7.04
C       2.44      -2.44       4.92
C      -3.13      11.32       3.96
C       6.43       1.92       4.37
C       7.49       2.48       5.26
C       6.94       3.72       7.33
C       5.79       4.52       7.94
C      -2.37       1.92      11.42
C      -1.30       0.90      11.54
C      -2.00      -1.50      11.51
C       1.13       4.51       0.01
N       7.28      -1.41       4.51
N       2.51       9.97       5.98
N       8.34      -3.16       8.19
N      -1.50       3.63       8.49
N      -1.96       3.48       5.82
N      -0.59       1.27       5.11
N       3.02      -2.86      11.44
N       6.85       6.81       0.03
N       3.88       1.89      10.57
N      -2.74       8.32       8.17
N      -2.27      10.19       5.94
N      -3.67       9.97       3.58
N       6.18       2.45       3.20
N       6.59       3.35       5.98
N       5.26       5.54       6.97
N       1.67       9.62       0.48
N       2.08       6.75       0.02
N       0.73       4.82       1.42
O       9.62      -2.72       5.62
O       6.75      10.52       3.76
O      -1.61      -1.39       5.57
O       9.95      -0.79       3.87
O       7.29       7.81       3.64
O       8.88       6.11       2.64
O       7.43       5.40       4.54
O      -4.07       7.03       4.97
O       0.80       3.24       6.74
O       2.33       5.04       7.32
O       2.98       2.62       7.89
O       1.20       3.79       9.29
O       2.85       6.58       5.08
O       4.37       8.33       4.09
O       2.95       6.98       2.53
O       4.88       5.85       3.72
O       5.22      -0.63      11.23
O      11.01       4.88       0.74
O       7.42      -1.40      10.29
O       5.58      -3.16      10.67
O      -1.60       5.87       3.31
O      -0.04       5.86       5.30
O      -1.50       7.86       4.95
O       0.40       7.44       3.34
O      -4.95       9.38       6.18
O      -2.04      -3.61       8.06
O       6.24       8.16       6.45
O      -5.29       7.71       8.17
O      -2.74      -0.94       8.34
O      -4.26       0.91       9.11
O      -2.78       1.35       7.14
O       8.66      -0.25       6.88
O       3.93       3.65       5.12
O       2.57       1.61       4.73
O       1.75       3.89       3.93
O       3.64       2.71       2.68
O       1.71       0.05       6.86
O       0.17      -1.56       8.04
O       1.69      -0.16       9.45
O      -0.23       0.95       8.26
O      -0.59       7.34       0.73
O      -6.29       1.81      11.07
O      -2.75       8.25       1.53
O      -0.87       9.93       1.08
O       6.17       0.78       8.55
O       4.70       0.49       6.52
O       6.13      -1.45       7.23
O       4.16      -0.79       8.64
