12

Gd       2.61      17.81      10.14
N       2.71      18.35       7.38
C       0.04      15.92       8.97
C       0.20      19.76      11.53
C       5.04      20.02       9.55
C       5.16      15.67      10.95
O       1.17      16.14       9.51
O       1.85      18.92       8.17
O       3.51      17.50       7.97
O       4.05      19.60      10.25
O       4.03      16.27      10.99
O       1.18      18.93      11.45
