22

O       1.03       9.06       5.70
O       3.03       9.99       5.83
H       2.70       9.56      12.57
H      -1.28       9.09      12.49
H       3.98       9.59      10.42
H       0.03       9.16       8.06
H       4.00       9.62       8.14
H      -1.26       9.13      10.22
C       1.97       9.43      10.69
C       1.91       9.45      12.09
C       0.73       9.32      12.75
C      -0.47       9.19      12.04
C       3.18       9.53       9.96
C       0.69       9.26      14.26
C       0.76       9.29       9.95
C       0.82       9.27       8.55
C       1.99       9.40       7.89
C       3.20       9.53       8.60
C      -0.45       9.19      10.68
C       2.03       9.45       6.38
O       1.69       9.65      14.93
O      -0.30       8.73      14.81
