22

H      -1.78       1.05      10.95
H      -2.51      -2.05      13.35
H      -0.69       0.63       8.74
H      -0.37      -3.92       9.69
H       0.37      -0.82       7.29
H      -1.45      -3.50      11.89
C      -1.11      -0.75      10.16
C      -1.74       0.14      11.12
C      -2.28      -0.34      12.27
C      -2.16      -1.72      12.55
C      -0.61      -0.27       8.96
C      -3.04       0.55      13.22
C      -1.03      -2.13      10.48
C      -0.40      -3.01       9.52
C       0.13      -2.53       8.37
C       0.01      -1.15       8.09
C      -1.53      -2.60      11.68
C       0.89      -3.42       7.42
O      -2.95       1.79      13.02
O      -3.70      -0.02      14.12
O       0.81      -4.66       7.61
O       1.55      -2.85       6.52
