22

O      -1.41       5.80       4.61
O      -1.73       3.62       4.49
H      -1.41       4.06      -2.25
H      -2.09       8.00      -2.18
H      -1.08       2.82      -0.10
H      -1.79       6.73       2.25
H      -1.10       2.79       2.18
H      -2.12       7.97       0.10
C      -1.50       4.80      -0.37
C      -1.53       4.85      -1.77
C      -1.74       6.01      -2.43
C      -1.95       7.21      -1.72
C      -1.24       3.61       0.36
C      -1.69       6.07      -3.94
C      -1.70       6.00       0.37
C      -1.66       5.95       1.77
C      -1.45       4.78       2.43
C      -1.24       3.59       1.72
C      -1.95       7.19      -0.36
C      -1.50       4.73       3.94
O      -1.79       5.00      -4.61
O      -1.47       7.17      -4.49
