144

Zn       6.73      10.88      11.06
Zn       3.73       3.42       3.77
Zn      -0.38       4.03       3.81
Zn       2.61      11.48      11.10
H      -0.32      13.05       9.41
H      -1.40       1.93      11.19
H       5.55      13.04      12.79
H       1.37      14.17       8.67
H       2.39       0.41       6.72
H      -0.25       3.75       7.21
H       6.85       2.58       9.09
H       3.96      14.21      13.62
H       4.90       0.41       0.77
H       7.69       3.64       0.36
H      -1.40       2.50      13.29
H       2.56       5.60       5.44
H       3.63       9.38       3.67
H       4.92       5.59       2.06
H       0.87       6.72       6.19
H      -0.16       7.85       8.15
H       2.49      11.19       7.65
H       3.62      10.03       5.77
H       6.52       6.76       1.24
H       5.57       7.86      14.10
H       2.80      11.10      14.51
H       3.63       9.96       1.57
H       6.67       1.85       5.46
H       7.75      12.98       3.68
H       0.79       1.87       2.08
H       4.98       0.73       6.19
H       3.96      14.50       8.15
H       6.59      11.16       7.65
H      -0.50      12.32       5.78
H       2.39       0.69       1.25
H       1.45      14.49      14.10
H      -1.34      11.27      14.51
H       7.74      12.40       1.57
H       3.79       9.31       9.42
H       2.72       5.53      11.20
H       1.43       9.32      12.81
H       5.47       8.18       8.68
H       6.50       7.05       6.72
H       3.86       3.72       7.21
H       2.72       4.88       9.09
H      -0.17       8.15      13.62
H       0.77       7.04       0.77
H       3.55       3.80       0.36
H       2.71       4.95      13.30
C      -0.83      13.65      10.16
C      -0.79       0.15      10.13
C       6.80       0.84      11.16
C       6.11       0.14      12.16
C       6.09      13.64      12.07
C      -0.10       0.84       9.02
C       0.98       0.24       8.35
C       1.58       0.88       7.26
C       1.14       2.15       6.85
C       0.09       2.77       7.54
C      -0.54       2.12       8.61
C       1.74       2.85       5.68
C       5.47       0.82      13.31
C       4.37       0.25      13.98
C       5.72       0.87       0.23
C       6.22       2.10       0.68
C       5.39       2.69      14.87
C       5.97       2.05      13.77
C       5.65       2.79       1.88
C       3.06       6.20       4.70
C       3.01       7.60       4.72
C       3.66       8.29       3.69
C       4.35       7.59       2.69
C       4.38       6.19       2.78
C       2.33       8.29       5.84
C       1.25       7.69       6.52
C       0.65       8.33       7.60
C       1.09       9.59       8.01
C       2.15      10.21       7.32
C       2.77       9.56       6.26
C       0.49      10.29       9.19
C       5.00       8.27       1.55
C       6.10       7.69       0.88
C       4.75       8.32      14.64
C       4.25       9.55      14.18
C       3.18      10.15      14.86
C       4.50       9.51       1.09
C       4.82      10.24      12.99
C       7.17       1.25       4.71
C       7.13      14.75       4.74
C      -0.45      14.06       3.70
C       0.24      14.76       2.71
C       0.25       1.26       2.80
C       6.45      14.06       5.84
C       5.37      14.66       6.52
C       4.77      14.02       7.60
C       5.20      12.76       8.01
C       6.26      12.14       7.32
C       6.88      12.79       6.26
C       4.60      12.06       9.19
C       0.88      14.08       1.56
C       1.97      14.66       0.89
C       0.62      14.04      14.64
C       0.12      12.81      14.19
C       0.95      12.21       0.00
C       0.37      12.85       1.09
C       0.69      12.12      12.99
C       3.28       8.71      10.17
C       3.33       7.31      10.14
C       2.68       6.61      11.17
C       1.99       7.31      12.17
C       1.97       8.71      12.09
C       4.02       6.61       9.03
C       5.09       7.22       8.35
C       5.69       6.58       7.27
C       5.25       5.31       6.86
C       4.20       4.70       7.55
C       3.58       5.34       8.61
C       5.85       4.61       5.68
C       1.35       6.63      13.31
C       0.25       7.21      13.99
C       1.60       6.58       0.23
C       2.10       5.35       0.68
C       3.17       4.76       0.00
C       1.84       5.40      13.78
C       1.52       4.67       1.88
N       6.74      12.96      11.10
N       3.74       5.51       3.75
N      -0.39       1.94       3.77
N       2.61       9.39      11.11
O       4.63       2.24       2.45
O       6.18       3.87       2.26
O       2.76       2.30       5.11
O       1.22       3.94       5.30
O       5.85       9.70      12.42
O       4.28      11.32      12.60
O      -0.53       9.75       9.75
O       1.01      11.39       9.56
O       1.71      12.67      12.42
O       0.17      11.03      12.61
O       3.59      12.60       9.76
O       5.13      10.96       9.57
O       0.50       5.20       2.45
O       2.06       3.58       2.27
O       6.87       5.16       5.12
O       5.34       3.51       5.30
