47

O      16.88     -14.75      23.04
C      14.23     -17.95      29.02
O      14.98     -16.92      29.05
O      13.35     -18.15      28.09
C      20.78     -15.27      24.38
O      13.13     -14.75      27.22
O      15.36     -14.36      27.48
H      14.67     -17.42      23.01
Zn      15.78     -19.23      21.76
O      11.74     -17.24      25.63
Zn      16.72     -13.09      21.76
O      14.85     -16.78      25.63
C      15.39     -20.68      24.30
Zn      13.20     -16.63      26.91
O      17.59     -15.40      29.05
O      19.20     -14.15      28.09
Zn      19.33     -15.67      26.91
H      17.52     -14.57      25.66
C      14.14     -14.02      27.58
O      19.43     -17.55      27.24
O      17.19     -17.95      27.46
O      20.78     -15.07      25.62
Zn      16.25     -16.19      20.95
Zn      16.29     -16.15      27.73
O      17.66     -15.54      25.66
Zn      16.27     -16.16      24.34
C      18.05     -14.13      19.65
C      11.75     -17.06      24.38
H      17.85     -14.89      23.02
C      14.12     -14.04      21.10
C      18.33     -14.35      29.03
O      15.50     -17.49      19.62
O      14.26     -19.11      20.58
C      14.46     -18.23      19.65
O      17.66     -19.32      21.44
O      18.05     -17.09      21.22
C      17.14     -11.64      24.29
O      15.19     -20.68      23.05
H      15.00     -17.75      25.66
O      15.64     -17.56      23.02
C      18.42     -18.29      27.58
O      17.02     -14.88      19.63
O      18.24     -13.24      20.59
O      14.84     -13.03      21.46
O      14.46     -15.27      21.20
C      18.40     -18.31      21.10
O      17.33     -11.63      23.04
