47

K       0.56      -8.05      18.25
O       0.56      -5.41      17.57
O      -0.89      -3.70      17.42
O      -2.28      -3.16      20.06
O      -2.10      -3.69      22.27
O       2.06      -7.40      20.46
C       3.31      -7.19      20.52
Zn      -0.96     -10.79      14.30
C      -2.74      -3.26      21.25
O       0.09      -5.72      23.80
O       3.79      -6.04      20.86
O      -1.36      -8.91      16.54
O      -2.17      -6.84      22.04
Zn      -0.41     -12.52      17.14
Zn       2.19     -11.26      15.30
O       2.10      -4.88      23.14
O       0.87      -2.23      19.63
Zn      -0.48      -3.63      19.35
O       0.18      -5.08      20.60
C       3.28      -8.95      15.97
Zn      -0.97      -5.29      22.24
C      -2.69     -12.87      15.26
Zn       2.12      -4.96      21.13
O       2.78      -3.31      20.25
C       1.34      -5.47      23.97
C      -2.13      -8.62      15.59
C       1.33     -10.68      12.51
C      -2.12      -7.50      20.92
C       2.14      -2.36      19.68
O       0.57     -10.69      18.91
O      -0.82     -12.45      19.07
O      -2.22     -12.98      16.45
C       2.21     -13.81      16.80
O       2.04      -8.73      16.07
O       3.76     -10.09      15.60
O      -2.05     -12.42      14.25
O       0.11     -10.37      12.72
O       2.09     -11.34      13.30
O      -1.35      -7.21      19.95
O      -2.19      -9.27      14.46
O       2.85     -12.90      16.18
O       0.94     -13.93      16.87
O       0.25     -11.08      15.88
H       0.09     -10.22      16.32
H      -0.10      -5.94      20.20
C      -0.22      -4.69      16.90
C      -0.18     -11.44      19.59
