10

N      13.43      12.78      13.81
Zn      11.45      13.09      13.88
P      10.32      15.31      12.78
C      14.05      13.21      14.92
P       9.95      12.39      16.37
O      11.59      15.25      13.82
O      10.15      13.75      12.60
H      12.03      16.15      14.09
C      14.43      12.53      12.88
O      11.10      11.94      15.42
