11

C      10.06       9.63       3.68
Zn       6.96      10.13       3.70
N       6.43       9.37       5.54
P       5.50       9.13       1.17
P       7.35      12.68       2.43
O       5.85       8.88       2.65
C       5.62       8.33       5.69
O       6.83      12.04       3.76
C       7.00       9.61       6.79
C       8.86       8.04       2.79
N       8.76       9.22       3.39
