174

C       0.08      15.43      16.50
C       0.09      15.64      15.10
C       9.95      16.93      14.56
C       9.79      18.05      15.40
C       9.74      17.85      16.80
C       9.89      16.55      17.34
C       9.67      19.34      14.89
C       0.52      19.86      13.99
C       0.43      21.15      13.50
C       0.44      22.27      14.37
C       0.43      23.59      13.86
C       0.44      23.78      12.45
C       0.43      22.68      11.57
C       0.44      21.37      12.10
C       0.52      22.90      10.20
C       9.67      22.38       9.30
C       9.79      22.58       7.93
C       9.75      21.47       7.05
C       9.95      23.87       7.38
C       0.09      24.05       5.99
C       0.08      22.94       5.11
C       9.89      21.65       5.66
C       0.52      24.66      14.73
C       9.67      25.70      14.73
C       9.79      26.79      15.59
C       9.95      26.62      16.98
C       9.75      28.10      15.07
C       9.89      29.22      15.92
C       0.08      29.05      17.31
C       0.09      27.73      17.83
C       0.24      30.19      18.26
C       0.24      23.19       3.65
C       0.24      14.04      17.01
C       9.92       7.04      22.42
C       9.90       6.83      23.82
C       0.05       5.54      24.37
C       0.20       4.42      23.52
C       0.25       4.63      22.12
C       0.11       5.92      21.58
C       0.33       3.14      24.03
C       9.47       2.61      24.93
C       9.57       1.32      25.43
C       9.56       0.20      24.56
C       9.57      -1.12      25.07
C       9.56      -1.31      26.47
C       9.57      -0.21      27.36
C       9.56       1.10      26.82
C       9.47      -0.42      28.72
C       0.33       0.09      29.63
C       0.20      -0.11      30.99
C       0.25       1.00      31.87
C       0.05      -1.40      31.55
C       9.90      -1.57      32.93
C       9.92      -0.47      33.82
C       0.11       0.82      33.26
C       9.47      -2.19      24.20
C       0.33      -3.23      24.19
C       0.20      -4.32      23.34
C       0.05      -4.15      21.94
C       0.25      -5.63      23.86
C       0.11      -6.74      23.01
C       9.92      -6.58      21.61
C       9.90      -5.26      21.10
C       9.75      -7.72      20.67
C       9.75      -0.72      35.27
C       9.75       8.43      21.91
C       0.17      22.24       1.39
C       1.25      22.74       0.62
C       1.06       0.50      38.16
C       9.82       0.23      37.54
C       8.74      -0.26      38.31
C       8.93      21.98       0.76
C       0.17      12.56      18.97
C       1.25      11.64      18.93
C       1.06      10.33      19.42
C       9.82       9.92      19.96
C       8.74      10.83      20.00
C       8.93      12.15      19.51
C       0.17      32.62      18.57
C       1.25      33.04      19.38
C       1.06     -10.82      20.27
C       9.82     -10.15      20.36
C       8.74     -10.57      19.54
C       8.93      33.30      18.65
H       0.21      14.85      14.47
H       9.96      17.04      13.54
H       9.85      16.45      18.36
H       9.62      18.64      17.44
H       0.48      20.57      11.47
H       0.48      22.12      15.38
H       0.48      24.73      12.07
H       9.96      25.68      17.40
H       9.62      20.52       7.42
H       9.85      20.82       5.07
H       0.21      24.99       5.62
H       9.96      24.70       7.98
H       0.21      27.58      18.83
H       9.85      30.15      15.50
H       9.62      28.26      14.06
H       8.93      21.79       9.61
H       1.27      23.48       9.89
H       8.93      19.91      15.25
H       1.27      19.30      13.65
H       8.93      25.73      14.06
H       1.27      24.64      15.39
H       1.18      30.04      18.81
H       9.42      30.13      18.98
H       1.18      23.74       3.51
H       9.42      23.84       3.34
H       1.18      13.64      16.61
H       9.42      13.45      16.61
H       9.78       7.62      24.46
H       0.03       5.44      25.38
H       0.15       6.02      20.57
H       0.37       3.84      21.49
H       9.52       1.91      27.46
H       9.52       0.35      23.55
H       9.52      -2.26      26.85
H       0.03      -3.21      21.53
H       0.37       1.95      31.51
H       0.15       1.65      33.86
H       9.78      -2.52      33.30
H       0.03      -2.23      30.94
H       9.78      -5.10      20.09
H       0.14      -7.67      23.43
H       0.37      -5.79      24.86
H       1.06       0.68      29.31
H       8.73      -1.01      29.04
H       1.06       2.57      23.68
H       8.73       3.17      25.28
H       1.06      -3.25      24.86
H       8.73      -2.17      23.54
H       0.58      -7.66      19.95
H       8.82      -7.56      20.12
H       0.58      -1.37      35.59
H       8.82      -1.27      35.42
H       0.58       9.03      22.32
H       8.82       8.83      22.32
H       1.84       0.85      37.60
H       8.15      21.62       1.33
H       1.08      21.40       2.97
H       8.92       1.07      35.95
H       1.84       9.66      19.39
H       8.15      12.81      19.53
H       1.08      14.35      18.90
H       8.92       8.12      20.02
H       1.84     -10.51      20.86
H       8.15      32.98      18.07
H       1.08      31.67      17.05
H       8.92      -9.20      21.88
N       7.49      -0.49      37.69
N       2.50      22.96       1.24
N       0.25      21.99       2.78
N       9.74       0.49      36.15
N       7.49      10.41      20.51
N       2.50      12.06      18.42
N       0.26      13.89      18.49
N       9.74       8.59      20.43
N       7.49      -9.92      19.66
N       2.50      32.39      19.27
N       0.25      31.55      17.65
N       9.74      -9.07      21.27
O       3.40      33.19      18.89
O       7.14      -1.69      37.79
O       2.86      24.16       1.13
O       3.40      22.24       0.74
O       6.60       0.24      38.19
O       7.14      11.10      21.49
O       2.86      11.37      17.43
O       3.40      11.99      19.30
O       6.60      10.48      19.63
O       7.14      -9.41      18.56
O       2.85      31.88      20.36
O       6.60     -10.72      20.03
