26

Ni       0.02      28.28      14.78
Ni       0.01      31.19      13.67
Ni      -2.86      30.02      14.41
Ni       2.91      29.46      13.98
C      -1.52      31.81      16.28
C      -2.61      27.26      15.61
C      -2.48      32.40      12.75
C       1.53      27.63      12.17
C       2.53      32.21      12.71
C       2.50      27.11      15.81
O      -1.13      29.53      13.62
O      -1.46      26.90      15.09
O      -3.38      28.10      14.95
O       0.70      27.19      13.11
H      -1.22      29.20      12.69
H       1.29      30.26      15.71
O       3.03      27.54      14.68
O       1.17      29.93      14.79
O       1.20      27.17      15.99
O      -1.19      32.37      12.50
O       1.51      32.52      13.47
O       2.03      28.84      12.26
O      -0.59      32.19      15.41
O      -2.03      30.60      16.19
O      -2.92      31.96      13.89
O       3.39      31.30      13.12
