26

O       6.14       8.13       6.22
O       5.77       6.14       4.07
O       3.82       7.24       4.54
O       8.43       7.22       4.85
O       9.77       5.27       5.93
O       4.09       6.52       7.50
O       6.11      10.19       8.36
O       7.52       6.43       7.69
O       7.70       4.45       5.41
O       7.88       8.47       9.83
O       9.83       7.33       9.49
O       9.52       8.07       6.68
O       5.30       7.57       9.12
O       3.98       9.41       8.01
Ni       6.86       6.26       5.80
Ni       6.87       8.34       8.07
Ni       4.19       8.23       6.35
Ni       9.49       6.32       7.68
H       6.49       8.83       5.62
H       7.13       5.74       8.28
C       4.60       6.53       8.71
C       4.45       6.17       4.10
C       4.80      10.37       8.42
C       9.14       8.18       5.43
C       9.19       8.43       9.86
C       9.01       4.29       5.48
