26

O       6.42       6.37      21.49
O       3.79       7.92      21.28
O       4.63       7.25      19.29
O       4.54       6.34      23.72
O       5.10       8.30      25.59
O       7.15       8.70      20.18
O       9.18       5.14      21.15
O       7.22       7.96      23.40
Ni       5.41       7.82      22.54
O       4.52       9.30      23.63
Ni       8.24       6.52      22.33
Ni       6.64       6.81      19.59
Ni       7.01       7.59      25.32
O       9.83       6.43      23.61
O       9.09       8.08      21.24
O       8.60       6.35      19.32
O       6.42       5.69      24.89
O       8.98       6.98      25.65
H       6.04       5.46      21.61
H       7.60       8.86      23.27
C       8.39       8.96      20.54
C       3.97       8.13      20.00
C       9.17       5.29      19.84
C       5.24       5.40      24.36
C       9.63       6.13      24.87
C       4.62       9.34      24.93
