26

Ni      21.81      22.69      21.49
Ni      18.89      21.63      21.60
O      20.65      21.38      22.56
Ni      20.39      21.92      24.42
O      22.41      22.27      24.82
O      22.69      21.06      20.56
O      22.35      22.69      18.50
O      20.06      23.80      23.71
Ni      20.38      22.23      18.65
O      20.08      22.87      20.49
O      23.38      22.74      22.82
O      17.36      21.55      20.24
O      18.40      21.76      18.23
O      20.87      20.38      19.33
O      18.12      23.31      22.59
O      18.39      21.56      24.59
O      22.89      23.95      20.31
O      17.79      20.38      22.75
H      20.95      20.44      22.50
H      19.76      23.81      20.49
C      18.86      24.15      23.31
C      23.18      23.03      24.08
C      17.82      20.51      24.05
C      22.09      20.16      19.80
C      17.61      21.08      19.03
C      22.87      23.78      19.01
