26

Ni      19.66       7.11       7.94
Ni      22.29       8.74       8.05
Ni      20.72       8.54      10.81
Ni      21.36       7.25       5.23
O      20.47       8.74       8.88
O      18.03       7.02       9.17
O      18.79       7.82      11.17
O      18.76       8.45       6.65
O      19.46       6.59       4.97
O      21.54       6.70      10.51
O      22.96      10.39       9.03
O      21.52       7.05       7.17
O      18.89       5.53       6.89
O      23.97       8.81       6.89
O      23.33       7.84       4.94
O      20.70       9.13       5.62
O      23.31       7.55       9.36
H      19.99       9.59       8.67
O      22.57       9.36      11.02
H      22.00       6.21       7.42
C      22.77       6.58      10.06
C      18.23       6.86      10.46
C      23.02      10.40      10.34
C      19.44       9.34       5.92
C      23.87       8.84       5.59
C      19.00       5.53       5.58
