26

Ni      14.11      13.61       1.54
Ni      14.29      14.47      -1.42
Ni      17.01      14.77       0.19
Ni      11.28      13.84       0.04
O      15.08      14.91       0.34
O      15.57      13.62       2.97
O      17.12      13.08       1.39
O      13.07      15.19       2.44
O      11.09      13.23       1.97
O      17.34      13.67      -1.52
O      15.57      15.59      -2.58
O      13.14      13.31      -0.19
O      13.05      12.30       2.65
O      12.98      14.24      -2.96
O      10.91      14.34      -1.96
O      11.81      15.74       0.58
O      15.30      12.73      -1.91
O      16.98      16.44      -0.94
C      16.62      12.63      -1.89
C      16.73      13.09       2.65
C      16.33      16.57      -2.09
C      12.21      16.00       1.81
C      11.79      14.79      -2.85
C      11.76      12.20       2.47
H      14.84      15.84       0.57
H      13.19      12.35      -0.44
