26

C       2.38       5.64       7.08
C       1.02       6.29       7.41
C       0.24       5.53       8.47
C      -0.24       6.20       9.61
C      -0.97       5.51      10.59
C      -1.17       4.13      10.44
C      -0.66       3.43       9.33
C      -0.77       1.26      10.39
C      -0.01       4.15       8.33
H       3.10       6.44       6.77
H       2.80       5.15       7.99
H       0.39       6.40       6.50
H       1.21       7.32       7.77
H      -0.05       7.27       9.73
H      -1.70       3.59      11.22
H       0.07       1.56      11.05
H      -1.74       1.36      10.91
H      -0.63       0.19      10.12
H       0.37       3.61       7.48
O       3.34       3.92       5.61
O       1.25       4.42       5.27
O      -2.30       5.54      12.58
O      -0.83       7.25      12.21
O      -0.75       2.04       9.18
C       2.32       4.64       5.96
C      -1.40       6.17      11.84
