26

H       5.19       4.55      24.36
H       3.90       4.05      23.23
H       3.76       6.56      22.51
H       4.84       6.91      23.90
H       3.76       7.27      26.03
H      -0.31       6.07      26.64
H      -2.58       4.31      24.37
H      -2.15       5.90      25.08
H      -1.67       4.34      25.92
H       1.68       5.09      22.96
O       5.95       5.65      21.48
O       6.16       3.49      22.12
O       0.51       7.85      28.25
O       2.68       7.98      28.37
O      -0.58       4.83      24.19
C       5.69       4.65      22.29
C       1.65       7.50      27.74
C       4.69       4.80      23.40
C       4.08       6.20      23.51
C       2.86       6.16      24.41
C       2.88       6.76      25.68
C       1.72       6.73      26.49
C       0.57       6.08      26.01
C       0.55       5.48      24.74
C      -1.80       4.85      24.94
C       1.70       5.54      23.95
