26

C       5.48       4.69      17.47
C       4.84       6.04      17.13
C       4.09       5.97      15.82
C       2.71       6.20      15.77
C       2.01       6.05      14.57
C       2.70       5.67      13.40
C       4.09       5.47      13.43
C       4.19       4.90      11.05
C       4.78       5.65      14.64
H       4.70       3.89      17.45
O       7.04       5.66      19.06
H       5.63       6.82      17.05
H       4.15       6.33      17.96
H       2.17       6.49      16.67
H       2.13       5.55      12.49
H       4.92       4.52      10.31
O       5.90       3.75      19.61
H       6.24       4.42      16.70
H       5.85       5.51      14.65
H       3.79       5.87      10.69
H       3.37       4.15      11.13
O      -0.26       5.40      14.20
O       0.27       7.60      14.47
O       4.85       5.07      12.31
C       6.17       4.70      18.80
C       0.59       6.37      14.46
