26

C       0.43       5.15      30.18
C       1.72       4.40      30.53
C       2.05       4.45      32.01
C       1.17       3.90      32.96
C       1.49       3.95      34.32
C       2.71       4.52      34.72
C       3.60       5.08      33.78
C       5.18       5.78      35.49
C       3.24       5.04      32.43
O      -0.60       3.27      35.11
O       1.10       3.14      36.62
O      -0.57       6.96      31.30
O       1.53       7.39      30.54
H       0.33       5.17      29.07
H      -0.45       4.59      30.58
H       2.55       4.83      29.93
H       1.62       3.33      30.23
H       0.25       3.43      32.64
H       2.96       4.53      35.78
H       6.16       6.31      35.57
H       5.30       4.77      35.93
H       4.43       6.37      36.05
H       3.92       5.48      31.70
O       4.82       5.69      34.11
C       0.58       3.40      35.35
C       0.41       6.56      30.69
