26

C      -2.35      10.87      16.74
C      -2.04      12.36      16.51
C      -3.29      13.20      16.53
C      -3.84      13.56      17.77
C      -5.01      14.31      17.83
C      -5.63      14.74      16.64
C      -5.08      14.40      15.38
C      -6.93      15.40      14.15
C      -3.91      13.62      15.35
O      -4.93      14.59      20.15
O      -6.94      15.07      19.18
H      -1.56      10.43      17.38
H      -3.32      10.72      17.28
H      -1.49      12.51      15.56
H      -1.36      12.71      17.31
H      -3.37      13.22      18.68
H      -6.53      15.33      16.70
H      -7.23      15.60      13.10
H      -6.91      16.36      14.70
O      -3.40       9.93      14.84
O      -1.13       9.58      14.98
H      -3.50      13.32      14.39
H      -7.68      14.71      14.59
C      -5.61      14.66      19.14
O      -5.63      14.79      14.15
C      -2.36      10.11      15.45
