14

Cu      13.24      16.75       6.15
Cu      13.38      16.62       8.79
C      11.61      14.89       7.43
C      14.95      18.53       7.45
C      15.12      15.00       7.33
C      11.51      18.37       7.71
O      12.00      15.38       6.32
O      14.48      18.11       6.34
O      14.62      15.50       6.27
O      11.89      17.98       6.56
O      12.04      17.87       8.74
O      14.70      15.38       8.47
O      14.61      17.99       8.55
O      12.10      15.29       8.53
