14

C      21.76       8.32      26.53
C      19.01       7.91      22.45
C      21.66       6.03      23.93
C      19.14      10.14      25.05
O      20.68       7.65      26.56
O      18.63       7.36      23.53
O      20.58       5.96      24.59
O      18.75       9.02      25.49
O      20.19      10.22      24.34
O      22.08       7.16      23.53
O      20.13       8.51      22.39
O      22.13       8.90      25.46
Cu      19.51       7.37      25.15
Cu      21.28       8.81      23.81
