14

C      18.88      22.64      25.13
C      21.76      26.57      24.44
C      19.03      25.13      22.75
C      21.64      24.10      26.83
Cu      19.50      25.34      25.51
Cu      21.16      23.87      24.08
O      18.55      23.75      25.64
O      20.71      26.68      25.14
O      18.70      25.64      23.87
O      20.59      24.80      26.91
O      22.00      23.62      25.71
O      20.04      24.38      22.68
O      22.08      25.47      23.90
O      19.96      22.51      24.49
