14

Cu      13.74      16.26      26.97
Cu      13.63      16.31      24.33
C      11.88      17.96      25.75
C      15.51      14.62      25.53
C      15.34      18.11      25.61
C      12.02      14.47      25.67
O      12.39      17.53      26.83
O      15.09      15.01      26.67
O      14.99      17.62      26.72
O      12.47      14.91      26.77
O      12.41      14.96      24.57
O      14.87      17.67      24.52
O      15.00      15.07      24.47
O      12.29      17.55      24.63
