14

O       6.45      27.04       8.26
O       8.23      23.91       7.51
O       6.27      25.22       6.39
O       8.33      25.65       9.41
O       6.82      24.58      10.60
O       4.81      24.04       7.56
O       6.79      22.79       8.75
O       4.95      25.92       9.40
C       5.39      27.02       8.95
C       7.83      22.83       8.03
C       5.19      24.55       6.46
C       7.94      25.18      10.53
Cu       7.46      25.57       7.77
Cu       5.69      24.22       9.19
