14

C       5.64       5.96      24.32
O       8.66       8.95      25.64
C       8.29      10.06      25.13
Cu       7.81       7.32      25.44
O       6.70       5.90      25.01
Cu       6.08       8.72      24.02
O       7.20       8.30      22.62
O       5.22       8.91      25.64
O       7.21      10.12      24.47
O       5.27       7.07      23.83
C       8.27       7.63      22.69
C       5.59       8.42      26.75
O       6.66       7.75      26.84
O       8.65       7.14      23.79
