616

H      24.51      34.61      14.98
H      26.26      35.00      13.41
H      24.37       1.52      15.85
H      26.09       1.92      14.25
H       1.32       2.67      13.38
H       3.16       3.01      14.86
H       3.23      36.10      15.74
H       1.44      35.75      14.23
H       2.61      36.76      11.66
H       3.30      35.15      10.10
H      26.66      34.08       9.42
H      25.96      35.71      11.02
H      24.90       0.93      11.70
H       1.55       1.95      10.98
H       0.83       3.59       9.41
H      24.20       2.57      10.16
H      10.82       3.14      22.78
H      12.57       2.76      24.34
H      10.69      36.23      21.91
H      12.40      35.84      23.50
H      15.01      35.09      24.37
H      16.85      34.74      22.89
H      16.92       1.65      22.02
H      15.13       2.01      23.53
H      16.30       1.00      26.10
H      16.98       2.61      27.66
H      12.96       3.67      28.34
H      12.27       2.05      26.73
H      11.21      36.82      26.05
H      15.24      35.81      26.77
H      14.52      34.17      28.35
H      10.51      35.19      27.60
H       3.98      22.78      34.61
H       5.73      24.34      35.00
H       3.84      21.91       1.52
H       5.56      23.50       1.92
H       8.16      24.37       2.67
H      10.00      22.89       3.01
H      10.08      22.02      36.10
H       8.28      23.53      35.75
H       9.45      26.10      36.77
H      10.14      27.67      35.15
H       6.12      28.34      34.08
H       5.42      26.73      35.71
H       4.36      26.05       0.93
H       8.39      26.77       1.95
H       7.67      28.35       3.59
H       3.66      27.60       2.57
H      17.66      14.98       3.14
H      19.42      13.41       2.76
H      17.53      15.85      36.23
H      19.25      14.25      35.84
H      21.85      13.38      35.09
H      23.69      14.86      34.74
H      23.77      15.74       1.65
H      21.97      14.23       2.01
H      23.15      11.66       0.99
H      23.83      10.10       2.61
H      19.81       9.42       3.67
H      19.11      11.02       2.05
H      18.05      11.70      36.82
H      22.08      10.99      35.81
H      21.37       9.41      34.17
H      17.35      10.16      35.19
H      23.10       7.12       8.61
H      24.75       4.28       2.51
H      23.24       4.89       3.19
H      24.19       3.66       4.07
H      23.70       7.69       3.37
H      24.27       5.16       9.61
H       9.41      30.64      29.15
H      11.06      33.48      35.25
H       9.55      32.87      34.56
H      10.50      34.10      33.69
H      10.00      30.07      34.39
H      10.58      32.59      28.15
H       2.57      29.15       7.12
H       4.20      35.25       4.28
H       2.70      34.56       4.89
H       3.64      33.69       3.66
H       3.17      34.39       7.69
H       3.73      28.14       5.17
H      16.25       8.61      30.65
H      17.91       2.51      33.47
H      16.40       3.19      32.87
H      17.36       4.07      34.10
H      16.85       3.37      30.07
H      17.42       9.61      32.60
H      22.67      37.11      20.27
H      17.15      35.10      16.58
H      17.80      34.59      18.14
H      18.83      34.56      16.68
H      17.50       0.16      19.82
H      23.93      37.19      18.12
H       8.98       0.64      17.49
H       3.46       2.65      21.19
H       4.11       3.16      19.62
H       5.14       3.19      21.08
H       3.81       0.38      17.94
H      10.25       0.58      19.63
H       2.14      17.49      37.12
H      24.00      21.18      35.10
H      24.65      19.62      34.59
H      25.68      21.08      34.56
H      24.34      17.94       0.16
H       3.40      19.64      37.19
H      15.83      20.27       0.64
H      10.30      16.57       2.65
H      10.95      18.14       3.16
H      11.98      16.68       3.19
H      10.65      19.82       0.38
H      17.09      18.12       0.57
H      26.51      34.61      29.98
H       0.88      35.00      28.41
H      26.37       1.52      30.85
H       0.71       1.92      29.25
H       3.32       2.67      28.38
H       5.16       3.01      29.86
H       5.23      36.10      30.74
H       3.44      35.75      29.23
H       4.61      36.76      26.66
H       5.30      35.15      25.10
H       1.28      34.08      24.42
H       0.58      35.71      26.02
H      26.90       0.93      26.70
H       3.55       1.95      25.98
H       2.83       3.59      24.41
H      26.20       2.57      25.16
H      12.82       3.14       0.57
H      14.57       2.76       2.13
H      12.69      36.23      36.91
H      14.40      35.84       1.29
H      17.01      35.09       2.16
H      18.85      34.74       0.68
H      18.92       1.65      37.02
H      17.13       2.01       1.32
H      18.30       1.00       3.89
H      18.98       2.61       5.45
H      14.96       3.67       6.13
H      14.27       2.05       4.52
H      13.21      36.82       3.84
H      17.24      35.81       4.56
H      16.52      34.17       6.14
H      12.51      35.19       5.39
H       5.98      22.78      12.40
H       7.73      24.34      12.79
H       5.84      21.91      16.52
H       7.56      23.50      16.92
H      10.16      24.37      17.67
H      12.00      22.89      18.01
H      12.08      22.02      13.89
H      10.28      23.53      13.54
H      11.45      26.10      14.56
H      12.14      27.67      12.94
H       8.12      28.34      11.87
H       7.42      26.73      13.50
H       6.36      26.05      15.93
H      10.39      26.77      16.95
H       9.67      28.35      18.59
H       5.66      27.60      17.57
H      19.66      14.98      18.14
H      21.42      13.41      17.76
H      19.53      15.85      14.02
H      21.25      14.25      13.63
H      23.85      13.38      12.88
H      25.69      14.86      12.53
H      25.77      15.74      16.65
H      23.97      14.23      17.01
H      25.15      11.66      15.99
H      25.83      10.10      17.61
H      21.81       9.42      18.67
H      21.11      11.02      17.05
H      20.05      11.70      14.61
H      24.08      10.99      13.60
H      23.37       9.41      11.96
H      19.35      10.16      12.98
H      25.10       7.12      23.61
H      26.75       4.28      17.51
H      25.24       4.89      18.19
H      26.19       3.66      19.07
H      25.70       7.69      18.37
H      26.27       5.16      24.61
H      11.41      30.64       6.94
H      13.06      33.48      13.04
H      11.55      32.87      12.35
H      12.50      34.10      11.48
H      12.00      30.07      12.18
H      12.58      32.59       5.94
H       4.57      29.15      22.12
H       6.20      35.25      19.28
H       4.70      34.56      19.89
H       5.64      33.69      18.66
H       5.17      34.39      22.69
H       5.73      28.14      20.17
H      18.25       8.61       8.44
H      19.91       2.51      11.26
H      18.40       3.19      10.66
H      19.36       4.07      11.89
H      18.85       3.37       7.86
H      19.42       9.61      10.39
H      24.67      37.11      35.27
H      19.15      35.10      31.58
H      19.80      34.59      33.14
H      20.83      34.56      31.68
H      19.50       0.16      34.82
H      25.93      37.19      33.12
H      10.98       0.64      32.49
H       5.46       2.65      36.19
H       6.11       3.16      34.62
H       7.14       3.19      36.08
H       5.81       0.38      32.94
H      12.25       0.58      34.63
H       4.14      17.49      14.91
H      26.00      21.18      12.89
H      26.65      19.62      12.38
H       0.30      21.08      12.35
H      26.34      17.94      15.16
H       5.40      19.64      14.98
H      17.83      20.27      15.64
H      12.30      16.57      17.65
H      12.95      18.14      18.16
H      13.98      16.68      18.19
H      12.65      19.82      15.38
H      19.09      18.12      15.57
C      26.14       3.29       9.68
C       0.12       3.06       9.92
C       0.54       2.09      10.86
C      27.00       1.34      11.63
C      25.62       1.52      11.29
C      25.20       2.48      10.36
C       0.07       0.23      12.60
C       0.51      36.35      11.62
C      26.96      35.58      10.87
C      27.37      34.62       9.92
C       1.35      34.44       9.61
C       2.30      35.24      10.30
C       1.88      36.18      11.25
C       1.20       0.55      13.59
C      26.33      37.12      13.60
C      25.85      35.81      13.87
C      24.83      35.57      14.82
C      24.28      36.63      15.56
C      24.76       0.73      15.33
C      25.77       0.95      14.38
C       1.72       1.85      13.84
C       2.79       2.06      14.73
C       3.36       0.99      15.45
C       2.83      36.91      15.25
C       1.77      36.70      14.35
C      12.44      34.46      28.08
C      13.81      34.70      27.84
C      14.23      35.66      26.89
C      13.31      36.42      26.12
C      11.93      36.24      26.47
C      11.51      35.27      27.40
C      13.76       0.31      25.16
C      14.20       1.41      26.13
C      13.27       2.18      26.88
C      13.67       3.13      27.84
C      15.04       3.32      28.15
C      15.98       2.52      27.46
C      15.57       1.58      26.51
C      14.90      37.20      24.17
C      12.64       0.64      24.15
C      12.16       1.95      23.88
C      11.14       2.18      22.94
C      10.59       1.12      22.19
C      11.07      37.03      22.42
C      12.08      36.80      23.37
C      15.41      35.90      23.92
C      16.49      35.69      23.03
C      17.05      36.77      22.30
C      16.52       0.85      22.51
C      15.46       1.05      23.41
C       5.60      28.08       3.29
C       6.97      27.84       3.06
C       7.38      26.89       2.10
C       6.46      26.12       1.34
C       5.09      26.47       1.52
C       4.66      27.40       2.48
C       6.92      25.16       0.24
C       7.36      26.14      36.35
C       6.43      26.88      35.58
C       6.83      27.84      34.62
C       8.20      28.15      34.44
C       9.14      27.46      35.24
C       8.72      26.51      36.18
C       8.05      24.17       0.55
C       5.80      24.16      37.12
C       5.32      23.88      35.81
C       4.29      22.94      35.57
C       3.74      22.19      36.63
C       4.23      22.42       0.73
C       5.24      23.37       0.96
C       8.57      23.92       1.85
C       9.64      23.03       2.07
C      10.20      22.31       0.99
C       9.68      22.51      36.91
C       8.62      23.41      36.70
C      19.29       9.68      34.47
C      20.66       9.92      34.70
C      21.08      10.86      35.66
C      20.15      11.63      36.42
C      18.78      11.29      36.24
C      18.35      10.36      35.27
C      20.61      12.60       0.31
C      21.05      11.62       1.41
C      20.12      10.87       2.18
C      20.52       9.92       3.13
C      21.89       9.61       3.32
C      22.83      10.30       2.52
C      22.42      11.25       1.58
C      21.74      13.59      37.20
C      19.49      13.60       0.64
C      19.01      13.88       1.95
C      17.98      14.82       2.18
C      17.43      15.56       1.12
C      17.91      15.33      37.03
C      18.93      14.38      36.80
C      22.26      13.84      35.90
C      23.33      14.73      35.69
C      23.89      15.45      36.77
C      23.37      15.25       0.85
C      22.31      14.35       1.05
C      23.61       7.14       5.34
C      23.48       6.80       7.71
C      24.35       5.69       7.63
C      24.47       6.01       5.25
C      24.25       4.55       3.44
C      23.30       7.93       4.24
C      24.69       4.93       8.74
C       9.92      30.62      32.42
C       9.79      30.96      30.05
C      10.66      32.07      30.13
C      10.78      31.75      32.51
C      10.56      33.21      34.32
C       9.61      29.83      33.52
C      11.00      32.83      29.02
C       3.08      32.42       7.14
C       2.95      30.05       6.80
C       3.81      30.13       5.69
C       3.93      32.50       6.01
C       3.70      34.32       4.55
C       2.77      33.51       7.93
C       4.15      29.02       4.93
C      16.77       5.34      30.62
C      16.63       7.71      30.96
C      17.51       7.63      32.07
C      17.62       5.25      31.74
C      17.41       3.44      33.21
C      16.44       4.24      29.83
C      17.85       8.74      32.82
C      19.45      36.78      19.62
C      21.84      36.95      19.70
C      21.92      36.79      18.29
C      19.53      36.59      18.22
C      18.04      35.11      17.20
C      18.25      36.93      20.29
C      23.12      36.90      17.61
C       5.76       0.98      18.13
C       8.15       0.80      18.06
C       8.23       0.96      19.46
C       5.84       1.16      19.54
C       4.35       2.64      20.56
C       4.56       0.83      17.47
C       9.43       0.84      20.14
C      26.30      18.13      36.78
C       1.31      18.06      36.96
C       1.39      19.46      36.79
C      26.38      19.54      36.59
C      24.89      20.55      35.11
C      25.10      17.47      36.93
C       2.59      20.14      36.90
C      12.61      19.62       0.98
C      14.99      19.70       0.80
C      15.08      18.29       0.96
C      12.68      18.22       1.16
C      11.20      17.20       2.65
C      11.40      20.29       0.83
C      16.28      17.61       0.85
C       0.75       3.29      24.68
C       2.12       3.06      24.92
C       2.54       2.09      25.86
C       1.62       1.34      26.63
C       0.24       1.52      26.29
C      27.20       2.48      25.36
C       2.07       0.23      27.60
C       2.51      36.35      26.62
C       1.58      35.58      25.87
C       1.99      34.62      24.92
C       3.35      34.44      24.61
C       4.30      35.24      25.30
C       3.88      36.18      26.25
C       3.20       0.55      28.59
C       0.95      37.12      28.60
C       0.47      35.81      28.87
C      26.83      35.57      29.82
C      26.28      36.63      30.56
C      26.76       0.73      30.33
C       0.39       0.95      29.38
C       3.72       1.85      28.84
C       4.79       2.06      29.73
C       5.36       0.99      30.45
C       4.83      36.91      30.25
C       3.77      36.70      29.35
C      14.44      34.46       5.87
C      15.81      34.70       5.63
C      16.23      35.66       4.68
C      15.31      36.42       3.91
C      13.93      36.24       4.25
C      13.51      35.27       5.19
C      15.76       0.31       2.95
C      16.20       1.41       3.92
C      15.27       2.18       4.67
C      15.67       3.13       5.63
C      17.04       3.32       5.94
C      17.98       2.52       5.25
C      17.57       1.58       4.30
C      16.90      37.20       1.96
C      14.64       0.64       1.94
C      14.16       1.95       1.67
C      13.14       2.18       0.73
C      12.59       1.12      37.19
C      13.07      37.03       0.21
C      14.08      36.80       1.16
C      17.41      35.90       1.71
C      18.49      35.69       0.81
C      19.05      36.77       0.09
C      18.52       0.85       0.30
C      17.46       1.05       1.20
C       7.60      28.08      18.29
C       8.97      27.84      18.06
C       9.38      26.89      17.10
C       8.46      26.12      16.34
C       7.09      26.47      16.52
C       6.66      27.40      17.48
C       8.92      25.16      15.24
C       9.36      26.14      14.14
C       8.43      26.88      13.37
C       8.83      27.84      12.41
C      10.20      28.15      12.23
C      11.14      27.46      13.03
C      10.72      26.51      13.97
C      10.05      24.17      15.55
C       7.80      24.16      14.91
C       7.32      23.88      13.60
C       6.29      22.94      13.36
C       5.74      22.19      14.42
C       6.23      22.42      15.73
C       7.24      23.37      15.96
C      10.57      23.92      16.85
C      11.64      23.03      17.07
C      12.20      22.31      15.99
C      11.68      22.51      14.70
C      10.62      23.41      14.49
C      21.29       9.68      12.26
C      22.66       9.92      12.49
C      23.08      10.86      13.45
C      22.15      11.63      14.21
C      20.78      11.29      14.03
C      20.35      10.36      13.06
C      22.61      12.60      15.31
C      23.05      11.62      16.41
C      22.12      10.87      17.18
C      22.52       9.92      18.13
C      23.89       9.61      18.32
C      24.83      10.30      17.52
C      24.42      11.25      16.58
C      23.74      13.59      14.99
C      21.49      13.60      15.64
C      21.01      13.88      16.95
C      19.98      14.82      17.18
C      19.43      15.56      16.12
C      19.91      15.33      14.82
C      20.93      14.38      14.59
C      24.26      13.84      13.69
C      25.33      14.73      13.48
C      25.89      15.45      14.56
C      25.37      15.25      15.85
C      24.31      14.35      16.05
C      25.61       7.14      20.34
C      25.48       6.80      22.71
C      26.35       5.69      22.63
C      26.47       6.01      20.25
C      26.25       4.55      18.44
C      25.30       7.93      19.24
C      26.69       4.93      23.74
C      11.92      30.62      10.21
C      11.79      30.96       7.84
C      12.66      32.07       7.92
C      12.78      31.75      10.29
C      12.56      33.21      12.11
C      11.61      29.83      11.31
C      13.00      32.83       6.81
C       5.08      32.42      22.14
C       4.95      30.05      21.80
C       5.81      30.13      20.69
C       5.93      32.50      21.01
C       5.70      34.32      19.55
C       4.77      33.51      22.93
C       6.15      29.02      19.93
C      18.77       5.34       8.41
C      18.63       7.71       8.75
C      19.51       7.63       9.86
C      19.62       5.25       9.53
C      19.41       3.44      10.99
C      18.44       4.24       7.62
C      19.85       8.74      10.61
C      21.45      36.78      34.62
C      23.84      36.95      34.70
C      23.92      36.79      33.29
C      21.53      36.59      33.22
C      20.04      35.11      32.20
C      20.25      36.93      35.29
C      25.12      36.90      32.61
C       7.76       0.98      33.13
C      10.15       0.80      33.06
C      10.23       0.96      34.46
C       7.84       1.16      34.54
C       6.35       2.64      35.56
C       6.56       0.83      32.47
C      11.43       0.84      35.14
C       0.92      18.13      14.57
C       3.31      18.06      14.75
C       3.39      19.46      14.58
C       0.99      19.54      14.38
C      26.89      20.55      12.89
C      27.10      17.47      14.72
C       4.59      20.14      14.69
C      14.61      19.62      15.98
C      16.99      19.70      15.80
C      17.08      18.29      15.96
C      14.68      18.22      16.16
C      13.20      17.20      17.65
C      13.40      20.29      15.83
C      18.28      17.61      15.85
N      23.30      36.38      16.44
N       4.42       1.18      16.23
N      25.77       4.20       8.77
N       1.71      33.54       8.69
N       9.61       1.37      21.31
N      18.11      36.58      21.52
N      12.08      33.55      28.98
N      15.39       4.22      29.07
N       2.77      21.32      36.38
N      11.26      21.52       1.18
N       5.23      28.98       4.20
N       8.55      29.07      33.54
N      16.45      16.44       1.38
N      24.95      16.23      36.58
N      18.93       8.77      33.55
N      22.24       8.69       4.22
N      23.17       7.48       6.58
N      24.80       5.35       6.39
N       9.47      30.28      31.18
N      11.11      32.41      31.37
N       2.63      31.18       7.48
N       4.26      31.36       5.34
N      16.31       6.58      30.28
N      17.96       6.39      32.41
N      20.62      36.96      20.29
N      20.75      36.63      17.62
N       6.93       0.80      17.46
N       7.06       1.12      20.14
N       0.09      17.46      36.96
N       0.22      20.14      36.63
N      13.78      20.29       0.80
N      13.91      17.62       1.13
N      25.30      36.38      31.44
N       6.42       1.18      31.23
N       0.39       4.20      23.77
N       3.71      33.54      23.69
N      11.61       1.37      36.31
N      20.11      36.58      36.52
N      14.08      33.55       6.77
N      17.39       4.22       6.86
N       4.77      21.32      14.17
N      13.26      21.52      16.18
N       7.23      28.98      19.20
N      10.55      29.07      11.33
N      18.45      16.44      16.38
N      26.95      16.23      14.37
N      20.93       8.77      11.34
N      24.24       8.69      19.22
N      25.17       7.48      21.58
N      26.80       5.35      21.39
N      11.47      30.28       8.97
N      13.11      32.41       9.15
N       4.63      31.18      22.48
N       6.26      31.36      20.34
N      18.31       6.58       8.07
N      19.96       6.39      10.20
N      22.62      36.96      35.29
N      22.75      36.63      32.62
N       8.93       0.80      32.46
N       9.06       1.12      35.14
N       2.09      17.46      14.75
N       2.22      20.14      14.42
N      15.78      20.29      15.80
N      15.91      17.62      16.13
O      25.02       5.59       4.07
O      11.33      32.17      33.68
O       4.48      33.68       5.58
O      18.17       4.07      32.16
O      18.42      36.48      17.43
O       4.73       1.28      20.32
O      25.26      20.32      36.47
O      11.57      17.43       1.28
O      27.02       5.59      19.07
O      13.33      32.17      11.47
O       6.48      33.68      20.58
O      20.17       4.07       9.95
O      20.42      36.48      32.43
O       6.73       1.28      35.32
O      27.26      20.32      14.26
O      13.57      17.43      16.28
