13

C       5.68       6.02      10.24
C       5.51       5.18      11.34
C       4.24       4.66      11.60
C       7.03       6.55       9.86
O       8.07       6.08      10.44
O       7.11       7.44       8.96
H       2.45       5.94       9.15
H       4.68       7.00       8.60
H       6.36       4.91      11.96
H       4.07       4.00      12.44
N       3.18       4.93      10.81
C       3.34       5.76       9.75
C       4.57       6.33       9.45
