13

C      12.59       7.69       4.71
C      12.24       8.93       4.16
C      12.99      10.05       4.50
C      11.80       6.45       4.38
O      12.28       5.32       4.70
O      10.69       6.60       3.76
H      15.27       8.77       6.50
H      14.01       6.67       6.00
H      11.40       9.03       3.49
H      12.74      11.04       4.13
N      14.05       9.99       5.34
C      14.41       8.78       5.85
C      13.70       7.62       5.56
