13

N       1.08      11.03      17.96
H      -1.41       9.34      19.51
H       0.21       9.19      17.58
H       1.87      12.86      18.50
H       0.27      13.19      20.44
C      -1.74      11.46      21.17
C      -0.70      11.29      20.10
C      -0.70      10.14      19.30
C       0.19      10.05      18.24
C       1.11      12.12      18.76
C       0.24      12.29      19.83
O      -1.94      12.63      21.64
O      -2.42      10.43      21.51
