13

H       4.85       9.33       9.52
O       3.83      10.40       7.53
H       6.48       9.19      11.44
H       6.51      13.18       8.56
O       4.35      12.57       7.32
H       8.13      12.87      10.49
N       7.35      11.04      11.04
C       4.52      11.42       7.83
C       5.56      11.27       8.91
C       5.57      10.13       9.71
C       6.46      10.05      10.77
C       7.37      12.12      10.24
C       6.50      12.28       9.17
