13

C       4.54      11.55      17.52
C       5.58      11.69      18.60
C       5.60      12.83      19.41
C       6.49      12.89      20.48
O       4.37      10.40      17.00
C       6.50      10.67      18.87
O       3.85      12.57      17.22
C       7.37      10.81      19.94
N       7.35      11.89      20.75
H       4.90      13.64      19.22
H       6.52      13.74      21.15
H       8.11      10.05      20.19
H       6.51       9.78      18.24
