13

H       1.49       1.67       9.53
H      -0.12       1.54      11.47
H      -1.74       5.24      10.54
H      -0.15       5.54       8.60
O       2.03       4.95       7.38
O       2.50       2.75       7.53
C       1.83       3.78       7.86
C       0.80       3.63       8.94
C       0.79       2.48       9.74
C      -0.10       2.41      10.81
C      -1.00       4.48      10.29
C      -0.13       4.64       9.21
N      -0.97       3.39      11.09
