16

O       8.14       6.54       4.34
H      10.43       7.69      -0.52
H       9.20       6.40      -0.45
C       6.85       9.24       3.80
H      10.45       6.48       0.80
C       7.64       8.90       2.59
C       8.44       7.77       2.30
C       8.67       6.63       3.16
O       9.40       5.63       2.79
H       6.80      10.32       3.95
H       5.83       8.85       3.72
H       7.31       8.76       4.68
N       8.45       9.14       0.54
N       7.68       9.70       1.50
C       8.94       7.96       0.99
C       9.81       7.09       0.15
