16

O       4.61       5.16      19.74
O       6.98       6.07      20.93
V       2.70       4.19      20.02
V       6.18       4.49      19.93
O       1.14       3.52      20.21
O       6.92       5.26      18.24
C       4.62       2.19      18.66
C       4.68       3.25      22.24
C       1.20       6.50      21.28
C       1.15       5.43      17.71
O       5.80       3.58      21.67
O       3.45       2.61      19.02
O       2.26       5.10      18.28
O       3.51       3.42      21.71
O       2.32       5.92      20.99
O       5.74       2.76      18.96
