24

O       5.84       5.22       3.48
O       3.57       5.22       3.48
O       5.93       5.57      -3.48
O       3.65       5.57      -3.48
O       1.38       4.42       0.96
O       1.82       6.40       1.94
H       6.95       6.91       2.30
H       9.11       6.91       1.22
H       9.43       5.73      -0.94
H       7.52       4.79      -2.10
H       2.67       5.20      -1.29
C       4.70       5.37       2.86
C       4.80       5.46      -2.85
C       7.04       6.42       1.35
C       8.28       6.43       0.73
C       8.44       5.80      -0.49
C       7.33       5.31      -1.17
C       6.03       5.47      -0.64
C       5.92       5.82       0.72
C       4.70       5.59       1.40
C       3.52       5.39       0.65
C       3.60       5.29      -0.73
C       4.83       5.34      -1.39
N       2.22       5.36       1.26
