22

O       4.74       6.84      10.47
O       6.72       5.82      10.28
H       4.38       8.71       9.32
H       3.33      10.57       8.08
H       6.96       4.86       8.07
O       4.74       6.84       3.20
O       6.72       5.82       3.38
H       4.38       8.71       4.35
H       3.33      10.57       5.58
H       6.96       4.86       5.59
C       5.74       6.42       9.74
C       5.71       6.58       8.25
C       5.02       7.63       7.56
C       4.38       8.71       8.23
C       3.79       9.75       7.54
C       6.41       5.62       7.53
C       5.74       6.42       3.92
C       5.71       6.58       5.41
C       5.02       7.63       6.11
C       4.38       8.71       5.43
C       3.79       9.75       6.13
C       6.41       5.62       6.13
