22

O       9.10       1.76       3.20
O       7.13       0.75       3.38
O       9.10       1.76      10.47
O       7.13       0.75      10.28
H       9.46       3.63       4.35
H      10.51       5.50       5.58
H       6.88      -0.22       5.59
H       9.46       3.63       9.32
H      10.51       5.50       8.08
H       6.88      -0.22       8.07
C       8.10       1.34       3.92
C       8.13       1.51       5.41
C       8.83       2.56       6.11
C       9.46       3.63       5.43
C      10.06       4.67       6.13
C       7.43       0.55       6.13
C       8.10       1.34       9.74
C       8.13       1.51       8.25
C       8.83       2.56       7.56
C       9.46       3.63       8.23
C      10.06       4.67       7.54
C       7.43       0.55       7.53
