14

O       9.94      17.78       6.05
Cu      11.31      16.43       5.90
Cu      11.31      16.43       8.52
O       9.93      17.81       8.34
O       9.94      15.09       6.05
O       9.93      15.06       8.34
C       9.54      18.16       7.19
C      13.09      18.16       7.19
C      13.09      14.71       7.19
C       9.54      14.71       7.19
O      12.68      15.09       6.05
O      12.70      15.06       8.34
O      12.68      17.78       6.05
O      12.70      17.81       8.34
