14

C      16.71       9.65      12.23
O      18.13      12.11      13.99
C      19.07      11.33      13.92
C      19.07      13.92      11.33
O      17.73       9.56      11.53
O      16.17      10.70      12.66
C      16.71      12.23       9.65
O      17.73      11.53       9.56
O      16.17      12.66      10.70
Cu      18.82      11.13      11.13
Cu      17.02      12.47      12.47
O      19.69      10.89      12.87
O      19.69      12.87      10.89
O      18.13      13.99      12.11
