14

C       9.54       7.19      14.71
O       9.94       6.05      15.09
O       9.93       8.34      15.06
C      13.09       7.19      14.71
O      12.68       6.05      17.78
O      12.70       8.34      17.81
Cu      11.31       8.52      16.43
Cu      11.31       5.90      16.43
C      13.09       7.19      18.16
O       9.94       6.05      17.78
O       9.93       8.34      17.81
O      12.68       6.05      15.09
O      12.70       8.34      15.06
C       9.54       7.19      18.16
