14

Cu      16.97       5.59       0.00
Cu      18.80       7.47       0.00
O      16.08       6.66      -1.39
O      17.64       8.28      -1.38
C      16.59       7.70      -1.77
O      18.09       4.80       1.40
C      19.07       5.35       1.81
O      19.68       6.42       1.41
O      16.08       6.66       1.39
C      16.59       7.70       1.77
O      17.64       8.28       1.38
C      19.07       5.35      -1.81
O      18.09       4.80      -1.40
O      19.68       6.42      -1.41
