14

O       6.55      26.21       1.39
O       4.99      24.59       1.38
Cu       5.65      27.28       0.00
Cu       3.83      25.40       0.00
C       6.03      25.17      -1.77
O       4.53      28.07      -1.40
O       2.95      26.45      -1.41
C       6.03      25.17       1.77
C       3.55      27.51       1.81
O       6.55      26.21      -1.39
C       3.55      27.51      -1.81
O       4.99      24.59      -1.38
O       4.53      28.07       1.40
O       2.95      26.45       1.41
