14

O      12.72       6.42      24.46
O      12.67       4.84      26.09
O      12.72       8.41      26.45
O      12.67       6.78      28.02
C      13.14       7.83      27.48
C      13.14       5.39      25.04
C       9.49       7.83      27.48
O       9.91       6.42      24.46
O       9.96       4.84      26.09
Cu      11.31       7.55      25.32
Cu      11.31       5.69      27.18
O       9.91       8.41      26.45
C       9.49       5.39      25.04
O       9.96       6.78      28.02
