14

Cu      16.97      27.28       0.00
C      19.07      27.51       1.81
O      18.09      28.07      -1.40
Cu      18.80      25.40       0.00
O      19.68      26.45      -1.41
O      16.08      26.21      -1.39
O      17.64      24.59      -1.38
O      18.09      28.07       1.40
C      16.59      25.17       1.77
O      19.68      26.45       1.41
C      19.07      27.51      -1.81
O      16.08      26.21       1.39
O      17.64      24.59       1.38
C      16.59      25.17      -1.77
