15

H       2.45       0.04       6.65
H      -0.63       2.63       5.61
C      -1.90      -1.11       8.07
C      -0.84      -0.24       7.45
C       0.53      -0.56       7.43
O      -2.23      -2.17       7.43
O      -2.49      -0.68       9.09
C       1.10      -1.76       8.12
C      -1.26       0.93       6.80
N       0.98       1.38       6.06
O       0.41      -2.37       8.98
O       2.30      -2.10       7.77
C       1.39       0.28       6.71
H      -2.30       1.24       6.81
C      -0.33       1.71       6.12
