15

N      12.36      12.03      20.68
O      15.56      15.58      19.31
C      11.95      13.14      20.03
C      13.67      11.70      20.62
C      12.80      13.97      19.31
H      10.89      13.38      20.09
H      13.97      10.79      21.13
C      15.23      14.53      18.67
O      11.04      15.52      18.97
C      14.60      12.48      19.94
H      15.64      12.17      19.93
C      14.17      13.65      19.29
O      12.93      15.79      17.76
C      12.23      15.18      18.62
O      15.83      14.10      17.65
