15

C       8.56      12.30      21.44
C       7.50      13.17      20.82
C       6.13      12.86      20.79
C       5.57      11.65      21.49
N       5.69      14.79      19.43
C       7.93      14.35      20.17
H       8.97      14.66      20.18
O       9.16      12.73      22.46
O       8.89      11.25      20.80
O       6.26      11.04      22.35
O       4.37      11.31      21.14
H       4.22      13.45      20.02
H       7.30      16.04      18.98
C       5.28      13.69      20.08
C       7.00      15.13      19.49
