16

O      10.45      12.05      16.48
Cd       8.74      10.76      17.67
O      10.77       7.25      21.47
Cd       8.91       8.21      20.26
O       7.45       9.07      21.87
O      10.29       6.51      19.44
Cl       7.43       8.60      18.20
O       7.20       6.91      21.44
Cl      10.22      10.36      19.73
O       6.88      11.72      16.46
O       7.36      12.46      18.48
O      10.21       9.89      16.05
C       6.81       7.97      22.03
C       6.61      12.47      17.44
C      11.04       6.49      20.48
C      10.84      11.00      15.89
