21

Ni       4.39       0.00       0.00
N       4.12       1.68      -1.19
N       5.67       0.96       1.34
H       4.99       1.65      -1.78
H       6.58       0.97       0.88
N       4.68      -1.68       1.19
N       3.14      -0.96      -1.34
O       6.13      -0.60      -1.06
C       5.76       0.07       2.52
C       5.24       2.36       1.64
C       2.95       1.38      -2.04
C       4.02       2.95      -0.42
O       2.68       0.59       1.06
C       6.66      -0.12      -2.14
C       3.05      -0.07      -2.52
C       3.57      -2.36      -1.64
C       5.85      -1.38       2.03
C       4.79      -2.95       0.42
H       3.82      -1.66       1.78
H       2.22      -0.98      -0.88
C       2.15       0.12       2.14
