21

Ni      13.20       9.06      11.75
H      11.03      10.04      12.66
H      12.63      10.72       9.97
N      12.95       7.38      12.95
N      14.47       8.09      10.42
N      13.49      10.73      10.56
N      11.95      10.01      13.11
O      14.97       9.64      12.81
O      11.47       8.46      10.72
H      13.81       7.41      13.54
H      15.38       8.08      10.89
C      14.56       8.98       9.24
C      14.05       6.69      10.12
C      11.78       7.67      13.81
C      12.84       6.11      12.19
C      15.50       9.17      13.89
C      11.88       9.12      14.29
C      12.39      11.41      13.41
C      14.66      10.43       9.72
C      13.60      12.00      11.34
C      10.94       8.93       9.64
