136

Sr       2.93       9.72      13.05
Sr       6.55      12.07       3.73
Sr      10.36       4.80       5.64
Sr       6.73       2.46      14.96
Zn       3.31       6.45      15.31
Zn       3.33       0.82       5.95
Zn       9.97       8.08       3.38
Zn       9.95      13.70      12.74
H       4.65       1.48      17.24
H       4.42       0.17       0.66
H       3.03       3.65       2.73
H       3.20       4.98       0.61
H       9.91       9.77      13.72
H       7.43       9.79      13.45
H       7.08       6.64      16.34
H       9.60       6.55      16.55
H       1.99       5.78       7.90
H       2.22       7.10      10.01
H       3.61       3.61      12.07
H       3.43       2.29       9.96
H      10.01      12.02       4.38
H      12.50      12.00       4.11
H      10.00       0.62       7.00
H       7.49       0.71       7.20
H       8.63      13.05       1.45
H       8.86      14.36      18.03
H      10.25      10.88      15.96
H      10.08       9.55      18.08
H       3.37       4.75       4.96
H       5.85       4.74       5.23
H       6.20       7.89       2.34
H       3.69       7.98       2.14
H      11.29       8.74      10.79
H      11.06       7.43       8.68
H       9.67      10.91       6.61
H       9.85      12.24       8.73
H       3.27       2.51      14.31
H       0.78       2.52      14.57
H       3.28      13.90      11.68
H       5.79      13.82      11.49
C       3.97       3.32      18.15
C       4.31       1.96      18.16
C       4.18       1.23       0.64
C       3.75       1.84       1.82
C       3.39       3.19       1.81
C       3.49       3.93       0.63
C       4.14       4.13      16.90
C       3.70       1.03       3.08
C       9.90       8.15      15.14
C       9.29       9.07      14.28
C       7.91       9.09      14.14
C       7.11       8.22      14.89
C       7.72       7.30      15.77
C       9.11       7.26      15.88
C      11.39       8.09      15.25
C       5.62       8.23      14.75
C       2.66       3.94       8.81
C       2.32       5.30       8.82
C       2.45       6.04       9.99
C       2.89       5.43      11.17
C       3.25       4.07      11.16
C       3.15       3.34       9.98
C       2.50       3.13       7.56
C       2.93       6.23      12.44
C      10.03      13.64       5.80
C      10.63      12.72       4.94
C      12.02      12.70       4.80
C      12.82      13.57       5.55
C      12.21      14.49       6.42
C       7.98      -0.00       6.54
C       8.53      13.70       5.91
C       3.86      13.56       5.40
C       9.31      11.20       0.54
C       8.97      12.57       0.53
C       9.10      13.30      18.05
C       9.53      12.69      16.86
C       9.89      11.34      16.87
C       9.79      10.60      18.05
C       9.14      10.40       1.79
C       9.58      13.50      15.61
C       3.38       6.38       3.54
C       3.99       5.45       4.41
C       5.38       5.43       4.55
C       6.17       6.31       3.80
C       5.56       7.22       2.92
C       4.18       7.27       2.80
C       1.89       6.43       3.44
C       7.67       6.29       3.94
C      10.62      10.59       9.88
C      10.96       9.23       9.87
C      10.83       8.49       8.70
C      10.40       9.10       7.51
C      10.03      10.45       7.53
C      10.13      11.19       8.71
C      10.78      11.40      11.13
C      10.35       8.30       6.25
C       3.26       0.89      12.89
C       2.65       1.81      13.75
C       1.26       1.83      13.89
C       0.47       0.95      13.14
C       1.08       0.04      12.26
C       5.30      14.53      12.15
C       4.75       0.82      12.78
C       9.43       0.96      13.28
O       5.01       3.77      16.04
O       3.38       5.14      16.78
O       3.37       1.65       4.15
O       6.84      14.33       3.01
O       1.44       7.00      15.69
O      12.08       9.10      14.89
O       4.98       7.46      15.55
O       5.08       8.99      13.88
O       1.65       3.49       6.68
O       3.26       2.10       7.46
O       3.27       5.61      13.51
O       2.61       7.46      12.38
O       5.20       0.27       6.32
O       7.85      12.68       5.58
O       4.49      14.36       6.18
O       4.39      12.78       4.56
O       8.27      10.76       2.65
O       9.91       9.38       1.90
O       9.91      12.88      14.54
O       6.44       0.20      15.68
O      11.84       7.53       2.99
O       1.21       5.42       3.80
O       8.30       7.07       3.13
O       8.20       5.53       4.81
O      11.64      11.03      12.01
O      10.03      12.42      11.22
O      10.01       8.91       5.18
O      10.67       7.06       6.31
O       8.08      14.25      12.37
O       5.43       1.85      13.11
O       8.79       0.16      12.51
O       8.89       1.75      14.13
