46

Co       3.35       2.62       9.85
Co       0.65       1.38       9.09
Co       6.00       0.23      10.53
Co      -2.01       1.28      11.55
Co       0.72       2.51      12.35
Co       6.07       3.63      10.87
H       1.16       3.78       9.81
H       5.53       2.36       8.72
H      -0.00       0.12      11.69
H       6.73       1.42      12.71
C       3.57      -1.55       9.89
C       2.20      -1.33       9.58
C       4.18       5.56       9.74
C       3.20       3.38      13.95
C       4.56       3.64      13.65
C       2.52       2.05       6.95
C       8.50       5.40      11.57
C      -0.89       5.17      11.89
C       7.91      -1.69      11.67
C      -1.83       0.47       7.50
C       7.56       0.20       7.81
C      -1.17       1.81      14.49
N       2.01       0.02       9.63
N       3.17       0.58       9.97
N       4.13      -0.32      10.13
N       2.59       2.99      12.78
N       3.54       3.02      11.83
N       4.72       3.41      12.31
N      -0.69       3.82      11.84
N      -1.85       3.26      11.49
N       7.93       4.17      11.33
N      -1.22       0.88       8.67
N      -2.17       0.85       9.62
N       7.40       0.43       9.14
O       1.32       2.88      10.15
O       5.39       2.26       9.68
O       5.39       5.36      10.13
O       3.35       4.65       9.45
O       1.30       1.75       7.23
O       3.40       2.40       7.78
O      -0.11       1.02      11.34
O       6.84       1.54      11.75
O       6.70      -1.49      11.32
O      -1.97      -0.78      11.91
O       0.05       2.10      14.20
O      -2.06       1.46      13.65
