22

Nd       6.08       0.21       2.07
O       4.72       0.79      -0.30
O       4.07       1.59       1.63
O       7.04       2.10       0.87
Nd       6.06      -0.21      -2.07
O       7.04       1.90      -1.36
O       3.64      -0.39      -2.82
O       4.84       1.14      -3.86
O       7.42      -0.79       0.30
O       8.08      -1.59      -1.63
O       5.10      -2.10      -0.87
O       5.10      -1.90       1.36
C       9.49      -0.67       4.67
C       8.38      -0.47       3.73
C       4.12       1.67       0.37
C       7.30       2.50      -0.28
C       2.66       0.67      -4.67
C       3.77       0.47      -3.73
C       8.03      -1.67      -0.37
C       4.85      -2.50       0.28
O       8.51       0.39       2.82
O       7.30      -1.14       3.86
