114

Cd       3.34       7.15       9.41
Cd       1.77      -1.41       3.73
Cd       4.16       1.27       2.83
Cd       0.95       4.47      10.31
H      10.06       1.75       0.99
H       6.02       9.44       1.81
H       7.11       1.53       4.16
H       4.46       1.64       7.57
H       1.05      -1.51       8.38
H       1.03       1.40      11.59
H      -4.95       3.99      12.16
H      -0.91      -3.70      11.34
H       0.99       2.75       7.67
H       6.36      -4.13      12.05
H       6.40       7.42       8.12
H      -1.25       9.87       1.10
H      -2.00       4.21       8.99
H       0.64       8.35       6.35
H       0.65       4.10       5.58
H       4.57      -1.32      10.73
H       5.83       1.28       0.22
H       4.06       7.24       4.77
H       4.08       4.34       1.55
H       3.62       4.52      10.74
H       4.47      -2.62       6.79
H       4.12       2.99       5.48
H       0.54       7.06       2.41
H      -1.29      -1.68       5.02
H      -0.72       4.46      12.93
H       3.60       4.50       9.00
H       1.50       1.22       2.41
H       1.51       1.24       4.15
C       9.40       9.77       1.77
C       3.12      -4.27      12.07
C       7.33       9.57       3.53
C       1.00       1.89       8.34
C       2.29       1.78       0.23
C       4.49      -1.77       7.48
C      -3.61       4.09      10.45
C       1.03      -0.19      10.10
C       4.55      -1.04       9.68
C       0.60       5.45       3.87
C      -2.22      -3.83       9.62
C       9.03       1.67       1.33
C      -1.56       4.34      12.25
C       4.11       5.15       5.32
C      -4.29      -4.03      11.38
C       0.56       6.78       3.46
C       1.01       1.14      10.53
C      -1.93      -3.79      10.98
C      -3.92       4.07      11.82
C      -3.00      -3.89      11.88
C       0.64       6.20       6.15
C       4.10       4.60       2.61
C      -2.87       4.22      12.73
C       4.34      -0.25       5.51
C       0.62       5.14       5.24
C       1.01       0.59       7.83
C       4.08       5.93       3.05
C       7.98       1.52       0.42
C       4.47      -0.46       6.99
C       4.07       5.34       6.82
C       4.11       3.84       4.81
C       2.83       3.96      12.91
C       1.03      -0.48       8.73
C       0.77       5.99       7.64
C       4.49       0.60       7.91
C       8.11       9.63       1.26
C       4.51       0.29       9.27
C       7.39       1.54       3.11
C       1.04       0.39       6.33
C      -2.28       4.20      10.04
C       6.67       1.39       0.90
C       1.99      10.01       1.07
C       8.72       1.65       2.69
C       8.65       9.70       3.96
C       0.62       7.51       5.67
C       4.09       6.22       4.41
C      -3.54      -3.96       9.18
C       7.04       9.53       2.16
N       4.55      -2.05       8.79
N      -1.28       4.31      10.93
N       0.99       2.16       9.66
N       6.95      -4.06      10.06
N      -1.84       9.80       3.09
N       0.56       7.79       4.36
N       4.12       3.58       3.49
N       6.39       1.42       2.21
Cl       4.46       1.53      10.48
Cl       7.36      -1.94       4.71
Cl      -1.55       1.74       3.90
Cl       0.66       4.20       2.67
Cl      -2.25       7.68       8.44
Cl       4.02       7.20       1.87
Cl       6.66       4.00       9.24
Cl       1.10      -1.46      11.28
O       3.88      -1.22       4.84
O       3.87       4.14      12.21
O       4.69       0.89       5.05
O       1.11       1.45       5.62
O       1.23       6.96       8.31
O       1.02      -0.81       5.91
O       3.20       4.88       9.87
O       0.43       4.85       8.09
O       2.21      -4.82      11.40
O       3.48       1.93       0.65
O       4.00       4.29       7.52
O       1.24       1.60       0.94
O       4.22      -3.80      11.63
O       0.89       9.54       1.52
O       1.63       3.81      12.49
O       4.09       6.55       7.23
O       1.91       0.86       3.28
O       2.91      10.56       1.75
