35

Co       1.75       1.56       0.22
O       1.67       2.30      -1.70
Co      -1.39      -1.37       0.19
Co      -1.07       1.79       0.61
O       1.85       4.51      -1.10
O      -1.37       2.53      -1.27
O      -1.11       4.73      -0.66
O       1.03      -4.11      -2.17
O      -1.94      -3.86      -1.73
Co       0.58       4.60       0.56
Co       1.41      -1.61      -0.21
Co      -0.29      -4.36      -0.55
C       2.04      -4.08       1.28
C      -1.19       3.79       2.81
C       2.73       3.46       2.28
C      -1.96      -3.77       1.84
C       1.13      -2.98      -2.85
C      -2.03      -2.73      -2.40
C       1.75       3.57      -2.02
C      -1.43       3.81      -1.55
O       0.44       2.48       0.73
O      -0.04      -2.35       0.11
O       0.27      -0.01       0.93
O      -0.58       4.82       2.28
O       1.26      -4.96       0.70
O       3.10       2.51       1.46
O      -2.49      -2.68       1.33
O      -1.91       2.98       2.07
O       2.57      -3.11       0.58
O       2.24       4.59       1.82
O      -1.56      -4.74       1.05
O      -2.41       0.31       0.58
O       2.75      -0.12      -0.20
O       1.18      -1.81      -2.24
O      -1.81      -1.57      -1.81
