12

C      11.75      10.89       8.39
C      13.36       9.52       7.97
C      13.82      10.78       7.89
C      15.13      11.37       7.61
C      13.93       8.15       7.87
O      15.09       7.98       7.40
O      13.18       7.17       8.18
O      15.23      12.66       7.78
O      16.09      10.67       7.23
N      12.02       9.58       8.36
N      12.79      11.69       8.16
H      10.90      11.21       8.57
