12

C      12.51       3.71       1.22
C      10.91       2.35       0.80
C      10.45       3.61       0.71
C       9.13       4.20       0.43
C      10.33       0.97       0.69
O       9.04       5.48       0.60
O       8.18       3.49       0.06
O       9.18       0.80       0.23
O      11.09      -0.00       1.00
H      13.37       4.03       1.39
N      12.24       2.41       1.18
N      11.48       4.52       0.99
