12

C      17.20       1.50       2.90
C      16.58       0.20       3.20
C      16.15       2.57       0.72
O      17.10      -0.44       4.18
O      15.62      -0.28       2.56
O      15.13       1.84       0.66
O      16.46       3.44      -0.14
H      19.28       3.61       3.54
N      18.19       1.94       3.73
N      17.97       3.46       2.06
C      18.60       3.10       3.17
C      17.05       2.44       1.88
