12

C      13.75      11.25      11.18
C      15.30      11.91      12.48
C      15.15      12.85      11.45
C      15.77      14.15      11.15
C      16.20      11.78      13.63
O      17.22      12.51      13.69
N      14.17      12.41      10.62
N      14.38      10.89      12.30
O      15.89      10.91      14.49
O      15.25      14.79      10.17
O      16.73      14.63      11.79
H      13.07      10.74      10.81
