12

C       8.47       1.22       3.46
C       6.86       0.80       4.83
C       6.40       0.71       3.57
C       5.09       0.43       2.98
C       6.29       0.69       6.20
H       9.32       1.39       3.14
N       8.20       1.18       4.77
N       7.43       0.99       2.66
O       4.99       0.60       1.69
O       4.13       0.06       3.68
O       5.13       0.23       6.37
O       7.04       1.00       7.18
