12

O       9.01       7.61       3.00
O       7.53       7.46       4.61
O       7.04       5.33       6.52
O       8.37       3.73       7.31
H      11.20       3.57       3.63
C       8.96       4.73       5.30
C       9.12       5.67       4.27
C      10.51       4.08       4.00
C       8.07       4.61       6.45
N       9.88       3.71       5.12
C       8.49       6.98       3.98
N      10.10       5.23       3.44
