65

O      11.19      11.67      18.07
O      12.59      11.10      16.33
O      12.91      10.31      21.75
O      15.12       9.68      21.69
C      10.81       8.88      19.00
C      11.43       8.37      16.74
C      12.39       7.67      15.88
C      12.16       7.63      14.49
C      12.97       6.84      13.68
C      14.25       6.18      15.50
C      13.49       6.94      16.38
C      10.36      10.62      20.72
C       8.70       9.57      22.15
C       8.54       8.52      23.16
C       9.63       7.81      23.71
C       9.40       6.74      24.55
C       7.10       7.03      24.39
C       7.25       8.13      23.56
H      10.43       8.08      19.64
H       9.98       9.30      18.41
H      11.34       8.20      14.07
H      12.81       6.79      12.61
H      15.10       5.61      15.86
H      13.73       6.94      17.44
H      10.74      11.53      21.21
H       9.48      10.88      20.14
H      10.65       8.10      23.46
H      10.22       6.18      24.99
H       6.11       6.67      24.68
H       6.37       8.65      23.18
C      12.13      11.07      18.99
C      11.55      11.61      16.73
C      10.57      12.29      15.88
C      10.78      12.32      14.48
C       9.97      13.10      13.68
C       8.68      13.76      15.51
C       9.46      13.01      16.38
C      12.55       9.35      20.74
C      14.22      10.39      22.16
C      14.39      11.44      23.16
C      13.30      12.14      23.72
C      13.54      13.21      24.57
C      15.84      12.91      24.40
C      15.69      11.82      23.56
C      11.46       9.98      19.85
H      12.51      11.87      19.64
H      12.95      10.64      18.41
H      11.61      11.76      14.07
H      10.12      13.15      12.60
H       7.83      14.33      15.87
H       9.23      13.01      17.44
H      12.17       8.46      21.25
H      13.44       9.06      20.16
H      12.28      11.87      23.47
H      12.72      13.77      25.01
H      16.83      13.27      24.68
H      16.55      11.30      23.16
N      14.00       6.09      14.17
N       8.15       6.31      24.88
N       8.94      13.85      14.17
N      14.79      13.63      24.88
O      11.75       8.27      18.08
O      10.41       8.94      16.32
O      10.01       9.68      21.76
O       7.78      10.26      21.68
