65

C       3.19       8.89       7.28
C       3.77       8.34       9.54
C       4.75       7.66      10.39
C       4.54       7.63      11.78
H       4.89      11.87       6.63
H       5.34      10.65       7.86
H       3.98      11.75      12.20
C       2.77      10.60       5.53
C       1.10       9.56       4.11
C       0.93       8.51       3.11
C       2.02       7.81       2.55
C       1.78       6.74       1.70
C      -0.52       7.04       1.87
C      -0.37       8.13       2.71
H       1.59      13.01       8.83
C       5.86       6.94       9.89
H       4.58       8.42       5.06
H       5.84       9.07       6.13
H       4.67      11.85       2.81
H       8.95      11.30       3.09
H       5.10      13.77       1.28
H       9.21      13.28       1.59
C       3.86       9.97       6.42
H       2.81       8.08       6.63
H       2.37       9.32       7.86
H       3.71       8.19      12.20
H       5.20       6.80      13.67
H       7.48       5.62      10.40
H       6.09       6.94       8.83
H       3.15      11.50       5.02
H       1.88      10.89       6.11
H       3.04       8.08       2.80
H       2.60       6.18       1.26
H      -1.51       6.68       1.59
H      -1.23       8.65       3.11
C       5.35       6.85      12.59
C       6.63       6.19      10.76
H       2.51      13.16      13.66
N       1.32      13.86      12.10
N       7.17      13.64       1.39
H       0.22      14.34      10.41
N       6.38       6.10      12.10
N       0.53       6.32       1.38
O       3.57      11.68       8.19
O       4.91      11.02       9.95
O       5.31      10.27       4.51
O       7.54       9.69       4.59
C       4.51      11.07       7.27
C       3.89      11.58       9.53
C       2.93      12.29      10.39
C       3.15      12.32      11.78
C       2.35      13.11      12.59
C       1.07      13.77      10.77
O       2.41       9.64       4.51
C       4.96       9.33       5.55
O       0.20      10.27       4.58
C       1.83      13.01       9.89
O       4.13       8.28       8.20
O       2.73       8.85       9.94
C       6.62      10.38       4.12
C       6.78      11.43       3.11
C       5.69      12.14       2.56
C       8.07      11.82       2.71
C       5.92      13.21       1.71
C       8.22      12.92       1.88
