29

C       7.22      39.57      25.27
N       4.43      40.71      19.01
Zn       5.23      39.67      20.73
Zn       8.07      38.69      22.39
H       6.01      37.62      21.72
Zn       5.24      37.76      24.01
N       4.45      36.81      25.78
N      10.19      38.73      22.39
C       5.17      40.75      17.87
C       3.32      41.48      19.07
O       6.05      41.44      21.29
O       8.14      40.80      21.97
O       6.01      38.45      22.22
O       6.13      38.39      19.42
O       3.31      39.40      21.43
C       5.17      35.85      26.39
C       3.34      37.26      26.40
O       6.00      39.19      25.24
O       8.15      39.29      24.46
O       6.14      35.98      23.61
C       7.35      37.95      19.42
O       3.32      38.19      23.38
C       2.77      38.78      22.40
C      10.88      38.15      23.39
C      10.87      39.31      21.39
C       7.25      41.65      21.70
C       7.35      35.77      23.20
O       8.23      38.16      20.31
O       8.23      36.63      22.91
