29

N       0.54      24.13       9.42
Zn       1.35      23.10      11.15
N       0.55      20.23      16.20
C       3.47      21.40       9.84
C       3.28      25.10      12.09
Zn       1.36      21.20      14.44
C      -1.11      22.19      12.82
N       6.31      22.21      12.81
Zn       4.18      22.16      12.77
C       6.99      21.62      13.82
C       7.00      22.78      11.81
C       3.48      19.21      13.63
C       1.28      24.18       8.29
C      -0.56      24.91       9.50
C       3.32      23.05      15.67
O       2.13      21.88      12.64
O       4.35      21.59      10.73
O       2.06      24.89      11.76
O       2.27      21.85       9.82
O      -0.57      22.77      11.83
O       4.20      24.25      12.27
O      -0.56      21.63      13.82
O       4.35      20.09      13.35
O       4.21      22.85      14.80
H       2.11      21.04      12.16
O       2.27      19.42      14.03
C       1.28      19.27      16.81
C      -0.56      20.68      16.83
O       2.13      22.59      15.70
