29

O       8.23      31.62      14.22
Zn       5.24      31.23      12.69
N       4.45      29.22      12.63
Zn       8.07      33.10      12.70
Zn       5.23      35.03      12.69
C       5.17      28.21      13.16
C       3.33      28.91      11.93
N       4.42      37.04      12.64
N      10.19      33.12      12.66
H       6.01      33.14      13.96
O       6.00      30.88      10.84
O       8.14      31.61      11.15
O       6.01      33.13      12.99
O       6.14      30.70      14.44
O       3.32      31.99      12.63
C       7.22      31.05      10.49
O       6.05      35.43      10.87
O       8.14      34.51      11.08
O       6.13      35.54      14.44
O       3.31      34.29      12.57
C       5.15      38.05      13.17
C       3.31      37.35      11.94
C       7.35      35.31      14.82
C       7.35      30.95      14.83
C       2.77      33.14      12.62
C      10.87      34.28      12.66
C      10.88      31.96      12.66
O       8.22      34.64      14.20
C       7.24      35.18      10.49
