12

C       1.86      15.41       5.93
C       2.59      14.81       4.73
C       3.46      13.61       5.13
C       2.73      12.28       5.38
O       3.46      11.25       5.41
O       0.59      15.16       6.03
O       2.56      16.12       6.71
O       1.45      12.27       5.53
N       1.62      14.42       3.68
H       3.27      15.61       4.37
H       4.21      13.42       4.34
H       4.03      13.86       6.04
