12

N       1.52       9.91       3.95
C      -0.13       8.33       3.12
C       1.26       8.48       3.75
C       2.32       7.82       2.84
C       2.40       8.33       1.40
H       1.27       7.92       4.70
H       2.14       6.74       2.78
H       3.32       7.95       3.28
O      -0.66       9.41       2.70
O      -0.66       7.18       3.04
O       3.13       7.68       0.61
O       1.74       9.39       1.08
