12

C       2.14       9.14      23.53
N       2.52      10.44      23.38
Ni       1.68      11.62      22.00
C       2.47      13.81      21.12
N       2.55      10.71      20.39
O       0.06      10.53      21.76
O       1.29      13.42      20.83
O       3.16      13.20      22.02
C       1.81       9.88      19.63
C       3.87      10.81      20.14
C      -0.86      10.47      22.68
C       3.52      10.90      24.15
