22

C       1.03      -2.41      10.93
H       3.40      -3.49       9.95
H       4.45      -5.63      10.71
H       0.26      -4.24      12.86
C       1.55      -1.57       9.92
C       0.91      -0.42       9.53
H       1.51      -6.30      13.53
H      -0.65      -2.55      12.32
H      -1.71      -0.41      11.57
H       2.49      -1.81       9.42
N       3.01      -5.98      12.14
N      -0.26      -0.06      10.13
H       1.24       0.26       8.75
O       3.64      -7.08      12.52
C       2.92      -4.06      10.75
C       3.55      -5.22      11.15
O      -0.89       1.04       9.76
C       1.72      -3.64      11.35
C       1.19      -4.47      12.35
C       1.84      -5.63      12.74
C      -0.18      -1.99      11.52
C      -0.80      -0.83      11.12
