268

C       0.58       0.50       5.24
C      11.81       0.62       5.68
C      11.80       0.59       7.08
C       0.56       0.48       7.54
C       0.82       0.43       8.93
C      12.31       0.51       9.87
C      10.99       0.63       9.36
C      10.73       0.68       7.98
C      10.76       0.76       4.77
C      11.05       0.79       3.39
C      12.38       0.66       2.91
C       0.86       0.50       3.86
C       2.46       1.60       6.41
C       3.78       1.13       6.36
C       3.77      12.30       6.37
C       2.44      11.85       6.39
C       4.84      11.40       6.43
C       4.57      10.02       6.51
C       3.24       9.53       6.51
C       2.17      10.46       6.43
C       2.21       2.99       6.47
C       3.29       3.91       6.49
C       4.61       3.40       6.37
C       4.86       2.02       6.32
C       1.51       0.45       6.40
C       0.16       0.46      30.34
C       0.19      11.72      30.84
C       0.15      11.76      32.23
C       0.13       0.54      32.64
C       0.13       0.85      34.03
C       0.11      12.37      35.00
C       0.10      11.03      34.54
C       0.13      10.72      33.17
C       0.30      10.61      29.98
C       0.40      10.83      28.60
C       0.36      12.15      28.05
C       0.22       0.69      28.94
C      11.55       2.38      31.41
C      12.01       3.70      31.32
C       0.84       3.70      31.36
C       1.30       2.38      31.43
C       1.74       4.78      31.37
C       3.12       4.52      31.47
C       3.61       3.19      31.52
C       2.69       2.11      31.48
C      10.16       2.13      31.48
C       9.23       3.21      31.46
C       9.73       4.52      31.29
C      11.11       4.78      31.24
C       0.14       1.44      31.46
C      12.52       0.64      45.22
C       1.26       0.82      44.73
C       1.22       0.83      43.34
C      12.45       0.65      42.92
C      12.14       0.59      41.55
C       0.62       0.70      40.58
C       1.95       0.90      41.02
C       2.26       0.96      42.40
C       2.33       0.99      45.62
C       2.09       0.96      47.01
C       0.79       0.71      47.53
C      12.28       0.58      46.61
C      10.59       1.73      44.13
C       9.28       1.26      44.22
C       9.29      12.42      44.19
C      10.62      11.98      44.12
C       8.22      11.52      44.17
C       8.49      10.15      44.07
C       9.82       9.66      44.02
C      10.89      10.59      44.07
C      10.84       3.12      44.07
C       9.76       4.04      44.08
C       8.44       3.53      44.24
C       8.19       2.15      44.29
C      11.54       0.59      44.10
C       0.53       0.49      20.10
C       0.51      11.74      19.60
C       0.53      11.79      18.20
C       0.52       0.58      17.80
C       0.49       0.90      16.43
C       0.49      12.43      15.45
C       0.54      11.08      15.88
C       0.55      10.75      17.26
C       0.44      10.64      20.47
C       0.42      10.87      21.86
C       0.49      12.18      22.40
C       0.55       0.71      21.49
C       1.67       2.41      19.03
C       1.21       3.73      19.14
C      12.38       3.73      19.13
C      11.93       2.41      19.04
C      11.48       4.81      19.13
C      10.10       4.54      19.03
C       9.61       3.21      18.97
C      10.54       2.14      18.99
C       3.07       2.16      18.95
C       3.99       3.23      18.99
C       3.49       4.55      19.17
C       2.11       4.81      19.23
C       0.53       1.47      18.99
C      11.63       0.50      13.52
C       0.32       0.15      14.07
C       1.38      12.49      13.15
C      12.53       0.43      11.29
C      10.41       0.74      14.33
C       9.05       0.16      13.88
C       9.80      12.08      15.05
C      12.50      11.81      38.66
C       0.36       0.51      39.19
C       0.66       1.52      38.25
C       0.14       0.09      36.41
C      12.17      10.63      39.49
C       0.19       9.25      39.12
C       0.74      10.00      40.33
C       1.38      12.47      49.86
C       0.57       0.65      48.95
C      12.05       1.37      49.53
C       0.08       0.67       1.50
C       2.50      11.60      49.47
C       2.47      10.14      49.95
C       2.27      10.45      48.47
C      12.20       0.65      24.57
C       0.52      12.36      23.83
C       1.40      11.55      24.59
C       0.47      12.32      26.65
C      11.15       1.48      23.93
C      10.46       2.62      24.71
C      11.49       2.95      23.62
C       3.79       6.08       7.62
C       3.09       5.32       6.64
C       2.30       6.06       5.73
C       3.04       8.13       6.63
C       4.63       5.51       8.69
C       4.28       5.91      10.14
C       4.03       4.48       9.67
C       7.07       3.76      32.59
C       7.82       3.02      31.63
C       7.08       2.20      30.75
C       5.01       2.99      31.63
C       7.66       4.64      33.63
C       7.25       4.34      35.08
C       8.68       4.07      34.62
C       9.22       6.21      42.96
C       9.95       5.45      43.91
C      10.78       6.19      44.79
C      10.02       8.26      43.90
C       8.34       5.63      41.92
C       8.64       6.03      40.46
C       8.90       4.59      40.93
C       6.16       3.79      17.88
C       5.40       3.04      18.82
C       6.14       2.22      19.71
C       8.21       3.01      18.84
C       5.58       4.66      16.83
C       6.00       4.37      15.38
C       4.56       4.09      15.83
H       5.41       4.04       6.33
H       5.82       1.68       6.27
H       5.81      11.73       6.44
H       5.37       9.38       6.56
H       1.20      10.13       6.45
H       1.24       3.32       6.54
H       1.79       0.35       9.25
H      10.18       0.68       9.99
H       9.77       0.76       7.64
H       1.84       0.43       3.55
H       9.79       0.86       5.09
H      10.26       0.89       2.74
H       9.09       5.32      31.23
H      11.45       5.74      31.16
H       1.40       5.75      31.34
H       3.76       5.32      31.49
H       3.01       1.15      31.54
H       9.83       1.17      31.60
H       0.12       1.84      34.31
H       0.11      10.25      35.20
H       0.15       9.74      32.87
H       0.22       1.64      28.59
H       0.34       9.66      30.35
H       0.49      10.02      27.98
H       7.64       4.17      44.30
H       7.23       1.80      44.37
H       7.25      11.85      44.20
H       7.70       9.50      44.05
H      11.86      10.27      44.01
H      11.80       3.45      43.96
H      11.17       0.45      41.26
H       2.71       0.96      40.35
H       3.23       1.08      42.70
H      11.32       0.42      46.94
H       3.28       1.16      45.27
H       2.88       1.13      47.64
H       4.13       5.35      19.24
H       1.77       5.77      19.33
H      11.82       5.77      19.17
H       9.46       5.34      19.03
H      10.21       1.17      18.92
H       3.39       1.20      18.83
H       0.44       1.88      16.14
H       0.52      10.32      15.20
H       0.55       9.78      17.55
H       0.63       1.67      21.84
H       0.40       9.69      20.10
H       0.36      10.05      22.47
H       2.30      12.20      13.48
H      10.36       1.66      14.91
H       9.37      12.27      16.03
H      10.22      11.09      14.83
H       9.04      12.13      12.96
H       8.17       0.74      14.15
H       0.99       2.44      38.55
H      11.19      10.61      39.98
H       0.46       9.59      41.30
H       1.75      10.40      40.19
H       0.86       9.20      38.26
H      12.12       8.39      39.35
H      11.42       1.93      48.96
H       3.51      12.03      49.47
H       3.11      10.20      47.82
H       1.25      10.31      48.11
H       1.58       9.79       0.24
H       3.44       9.68      50.20
H       2.07      10.92      24.14
H      10.50       0.99      23.21
H      11.08       3.34      22.69
H      12.45       3.32      23.99
H      10.80       2.84      25.72
H       9.43       2.84      24.44
H       1.78       5.58       4.99
H       5.71       5.44       8.52
H       4.73       3.73      10.05
H       2.98       4.21       9.53
H       3.37       6.50      10.30
H       5.12       6.03      10.82
H       7.55       1.65      30.03
H       7.73       5.70      33.41
H       9.44       4.77      34.98
H       8.94       3.01      34.52
H       6.66       3.45      35.28
H       7.14       5.21      35.74
H      11.32       5.71      45.52
H       7.27       5.56      42.13
H       8.19       3.84      40.57
H       9.95       4.32      41.03
H       9.54       6.61      40.26
H       7.78       6.14      39.80
H       5.66       1.67      20.43
H       5.50       5.73      17.05
H       3.81       4.80      15.47
H       4.30       3.04      15.93
H       6.59       3.47      15.19
H       6.11       5.23      14.72
N       1.18       0.07      11.82
N      11.51       0.63      12.17
N       0.54       1.29      36.91
N      12.41      11.67      37.31
N      11.84       1.35       0.64
N       1.11      12.53       0.97
N       1.34      11.54      25.94
N      12.20       0.57      25.94
N       2.31       7.42       5.73
N       3.76       7.44       7.54
N       5.72       2.22      30.76
N       5.71       3.74      32.52
N      10.78       7.55      44.78
N       9.26       7.56      43.02
N       7.50       2.24      19.71
N       7.52       3.77      17.95
