21

Ni       1.63      14.19      13.19
Ni       3.01      11.17      13.70
C      -1.20      13.61      12.74
C       4.64      13.53      13.08
C       3.17      10.09      11.05
N       1.70      16.25      13.49
N       4.32       9.99      14.81
C       0.87      16.83      14.38
C       2.55      17.05      12.80
C       3.98       9.45      16.00
C       5.56       9.76      14.34
O       1.27      13.93      15.16
O       2.49      12.03      15.39
O      -0.24      14.46      12.64
O       3.62      14.30      13.10
O       4.62      12.26      13.10
O       3.14       9.80      12.30
O       1.51      12.18      12.57
H       0.48      12.06      12.65
H       1.83      11.83      11.64
C       1.82      13.01      15.84
