33

C      -0.97       0.43      21.14
C      -1.26      -0.06      19.75
C      -0.70       0.61      18.64
C      -0.98       0.19      17.35
C      -1.84      -0.90      17.17
C      -2.28      -1.57      15.96
C      -1.95      -1.32      14.61
C      -2.53      -2.12      13.63
C      -3.42      -3.16      13.99
C      -4.03      -4.01      12.93
C      -3.73      -3.42      15.34
C      -3.17      -2.62      16.32
C      -3.38      -2.67      17.83
C      -4.84      -2.29      18.18
C      -3.03      -4.05      18.42
C      -2.43      -1.56      18.28
C      -2.14      -1.14      19.57
H      -0.05       1.46      18.83
H      -0.55       0.70      16.48
H      -1.25      -0.54      14.35
H      -2.30      -1.95      12.59
H      -4.41      -4.23      15.58
H      -5.11      -1.33      17.72
H      -5.53      -3.06      17.80
H      -4.96      -2.22      19.26
H      -3.13      -4.02      19.52
H      -3.73      -4.81      18.04
H      -2.01      -4.35      18.18
H      -2.58      -1.61      20.45
O      -1.64      -0.07      22.11
O      -0.09       1.35      21.27
O      -4.98      -4.82      13.25
O      -3.59      -3.93      11.73
