33

C       0.03       8.54       9.44
C      -0.58       9.70       8.71
C      -1.53      10.51       9.37
C      -2.10      11.60       8.72
C      -1.72      11.87       7.40
C      -2.16      12.91       6.47
C      -3.08      13.96       6.63
C      -3.37      14.78       5.53
C      -2.74      14.55       4.29
C      -3.03      15.39       3.10
C      -1.80      13.51       4.15
C      -1.51      12.70       5.23
C      -0.54      11.54       5.31
C      -0.84      10.46       4.25
C       0.92      12.04       5.14
C      -0.78      11.05       6.73
C      -0.20       9.97       7.39
H      -1.82      10.26      10.39
H      -2.84      12.22       9.23
H      -3.57      14.14       7.59
H      -4.08      15.59       5.62
H      -1.33      13.36       3.17
H      -0.70      10.86       3.24
O      -0.37       8.28      10.63
O       0.96       7.85       8.87
O      -3.62      16.52       3.20
O      -2.62      14.98       1.95
H      -0.16       9.60       4.37
H       0.54       9.34       6.90
H      -1.87      10.10       4.34
H       1.16      12.79       5.91
H       1.62      11.21       5.24
H       1.06      12.49       4.15
