33

H       1.64       7.01       4.15
H       2.14       7.78       6.49
H       2.84       9.01       8.62
H       3.89      10.43      10.38
H       6.00      12.70       7.39
H       6.70       9.81       5.25
H       7.12      11.54       5.17
H       6.56      10.69       3.71
H       4.73      12.50       3.45
H       5.32      13.28       4.93
H       3.60      12.83       4.79
H       4.17      10.08       2.52
O       3.23       8.54       0.87
O       1.68       7.12       1.70
O       6.57      13.29       9.72
O       5.18      12.41      11.24
C       2.56       8.04       1.84
C       2.85       8.53       3.22
C       2.29       7.86       4.33
C       2.57       8.28       5.63
C       3.44       9.38       5.80
C       3.88      10.04       7.01
C       3.55       9.80       8.36
C       4.12      10.60       9.34
C       5.01      11.64       8.98
C       5.62      12.48      10.04
C       5.32      11.89       7.63
C       4.76      11.09       6.65
C       4.97      11.14       5.14
C       6.43      10.77       4.79
C       4.63      12.52       4.54
C       4.03      10.03       4.69
C       3.73       9.61       3.40
