162

Co       1.72       7.93       4.26
Co       1.43      -2.57      12.76
H       0.45       6.75       1.76
H      -4.55       4.84      16.76
H       4.70       0.94       1.72
H       5.85      -0.09       3.67
H      -3.02       1.75      16.05
H      -4.49       2.69      15.72
H      -3.90      -0.35      15.61
H       6.33       0.40      15.09
H      -6.61       1.88      16.73
H      -2.81       7.32       1.30
H       2.96       9.07       1.74
H       1.86       0.61      16.77
H       4.28       4.35       1.74
H       3.14       5.40       3.68
H       0.35       3.70      16.03
H       1.82       2.76      15.71
H       6.79      -4.74      15.60
H       2.76       5.06      15.09
H       3.93       3.58      16.73
H       6.21       8.49       1.29
H       7.74      -0.92       6.75
H       3.94      -0.71       8.76
H       2.94      -1.97       6.80
H      -1.18       8.01       4.86
H       7.39      -0.59       9.46
H       5.86       0.25       9.80
H      -2.97       1.20       9.90
H      -4.38       2.17      10.43
H       5.52       2.47       8.80
H       5.66       1.70       7.20
H       1.29       6.27       6.77
H       5.11       6.08       8.75
H      -5.69       7.33       6.77
H       4.61       7.87       4.84
H       1.66       5.94       9.48
H       3.19       5.11       9.81
H       0.24       4.16       9.91
H       1.64       3.18      10.43
H       3.51       2.88       8.80
H       3.37       3.66       7.21
H       2.70      -1.39      15.26
H       7.70       0.53       0.26
H      -1.55       4.43      15.30
H      -2.70       5.46      13.35
H       6.17       3.61       0.97
H       7.64       2.68       1.30
H       7.04       5.71       1.40
H      -3.19       4.97       1.93
H       9.76       3.49       0.29
H       5.96      -1.96      15.72
H       0.19      -3.71      15.28
H       1.29       4.76       0.25
H      -1.14       1.02      15.27
H       0.01      -0.04      13.33
H       2.80       1.67       0.99
H       1.33       2.60       1.31
H      -3.65      10.10       1.42
H       0.38       0.30       1.93
H      -0.79       1.78       0.29
H      -3.06      -3.12      15.72
H      -4.59       6.28      10.27
H      -0.78       6.07       8.26
H       0.21       7.34      10.22
H       4.33      -2.65      12.16
H      -4.24       5.95       7.56
H      -2.71       5.12       7.22
H       6.12       4.16       7.12
H       7.53       3.19       6.59
H      -2.37       2.89       8.22
H      -2.51       3.66       9.82
H       1.86      -0.92      10.25
H      -1.96      -0.71       8.27
H       8.83      -1.96      10.24
H      -1.46      -2.51      12.17
H       1.49      -0.58       7.54
H      -0.04       0.25       7.21
H       2.91       1.20       7.11
H       1.51       2.18       6.59
H      -0.36       2.48       8.22
H      -0.22       1.70       9.81
C       0.15       7.79       1.72
C      -0.55       8.27       0.61
C      -0.95       9.61       0.59
C       4.97      -0.11       1.69
C       5.62      -0.68       2.78
C      -3.94       2.14      16.51
C      -4.89      -0.02      15.96
C      -2.96       6.58       0.51
C       3.26       8.03       1.71
C       3.96       7.54       0.60
C       4.36       6.20       0.59
C       4.01       5.40       1.70
C       3.36       5.97       2.79
C       1.27       3.31      16.50
C       2.21       5.48      15.95
C       6.37       9.23       0.50
C       6.67      -1.14       6.79
C       5.92      -0.73       7.89
C       4.55      -1.01       7.92
C       4.00      -1.72       6.83
C      -0.77       8.50       5.74
C       6.60       0.03       9.00
C      -3.74       1.91       9.56
C       6.24       2.19       8.00
C       2.35       6.50       6.80
C       3.11       6.10       7.90
C       4.48       6.38       7.91
C       5.03       7.07       6.81
C       4.21       7.39       5.73
C       2.44       5.33       9.02
C       1.01       3.45       9.56
C       2.80       3.17       8.00
C       3.00      -2.43      15.30
C       3.70      -2.91      16.41
C       4.10      -4.25      16.43
C      -1.82       5.48      15.33
C      -2.47       6.04      14.24
C       7.09       3.22       0.51
C       8.03       5.38       1.06
C       6.11      -1.21      16.51
C      -0.11      -2.67      15.31
C      -0.81      -2.18      16.41
C      -1.21      -0.84      16.42
C      -0.86      -0.04      15.31
C      -0.22      -0.61      14.23
C       1.88       2.05       0.52
C       0.94      -0.11       1.06
C      -3.22      -3.87      16.51
C      -3.52       6.51      10.22
C      -2.77       6.10       9.12
C      -1.40       6.38       9.10
C      -0.85       7.08      10.19
C       3.92      -3.14      11.27
C      -3.45       5.33       8.01
C       6.89       3.46       7.46
C      -3.09       3.17       9.02
C       0.80      -1.14      10.21
C       0.04      -0.73       9.12
C      -1.33      -1.01       9.11
C      -1.88      -1.71      10.21
C      -1.06      -2.03      11.28
C       0.71       0.04       8.00
C       2.14       1.91       7.46
C       0.35       2.20       9.02
N       0.43       8.55       2.82
N      -4.70       0.99      17.01
N       2.98       7.28       2.82
N       2.02       4.47      17.00
N       0.56       8.78       5.69
N       7.24       1.25       8.50
N       2.88       7.11       5.70
N       1.80       4.11       8.51
N       2.72      -3.19      14.19
N       7.84       4.38       0.01
N       0.16      -1.92      14.19
N       1.13       0.90       0.02
N       2.59      -3.42      11.32
N      -4.09       4.11       8.51
N       0.27      -1.75      11.32
N       1.35       1.25       8.51
