15

H      17.54       8.67       9.06
H      16.88      10.39       7.41
H      20.72      11.92       7.17
H      21.52      10.33       8.93
C      20.11       8.42      10.14
C      19.61       9.36       9.14
C      18.28       9.38       8.70
C      17.90      10.34       7.76
C      20.05      11.20       7.63
C      20.49      10.30       8.59
N      19.39       7.64      10.99
N      20.31       7.01      11.74
N      21.52       7.39      11.35
N      21.43       8.27      10.36
N      18.76      11.24       7.22
