38

Ag      10.38       9.73       7.90
Ag       8.32       6.30      13.23
N      10.43       6.45      13.88
N       9.47       7.19      10.41
Ag      11.12       8.41      11.36
N      13.14      10.87      11.00
Ag      12.13       4.47      11.64
N      12.15      10.37       9.11
Ag      14.17       7.96       6.33
Ag      11.37       5.83       8.20
N      16.25       8.07       5.63
N      10.15       6.73       5.44
N      14.07       7.69       8.61
N      13.11       7.09      10.47
N      17.17       7.72       6.55
N      11.32       6.70       6.05
N      14.25       7.72      10.82
N      10.34       4.07       9.11
N       9.35       3.03      10.77
N      12.06       7.78       5.67
N      13.01       7.06       9.15
N       9.34       3.39       8.55
N      10.34       3.87      10.45
C       5.56       5.63      14.97
C       7.67       6.16       9.89
C      11.20       5.76      14.74
C      16.93       8.63       4.59
C      14.82       8.09       9.66
C      11.28       8.46       4.81
N       6.23       6.18      13.92
N      12.35       7.48      14.11
N       8.41       6.57      10.95
N       9.38       7.15       9.09
N       5.31       6.50      12.99
N      11.17       7.53      13.51
N       8.25       6.52       8.73
N      12.15      10.17      10.45
N      13.12      11.21       8.78
