17

N       3.17       4.43      14.24
O       5.66       1.37      13.58
Y       4.21       2.70      12.59
O       3.86       0.77      11.37
O       2.46       3.30      11.30
C       4.11       5.03      15.03
C       1.89       4.67      14.53
C       5.54       4.69      14.66
C       2.68       0.20      13.40
O       2.78       1.42      13.77
O       5.73       4.24      13.50
C       6.91       3.44      10.33
C       7.41       2.12      12.16
C       1.55       3.38      10.42
C       6.94       1.35      13.40
N       6.48       2.70      11.37
C       3.30      -0.16      12.01
