17

Y       7.81      10.72       0.12
C       4.62      10.13       0.55
C      10.47      11.41       2.25
C       5.09       9.36      -0.69
C       5.11      11.43       2.38
C       8.71       7.86       0.70
C       6.46      12.70      -1.96
C       7.89      13.03      -2.33
O       6.37       9.38      -0.88
O       9.58      11.32       1.34
O       8.17       8.79       1.35
C      10.11      12.66      -1.85
C       9.31       8.21      -0.70
N       5.55      10.70       1.34
O       6.29      12.25      -0.79
N       8.82      12.42      -1.56
O       9.21       9.43      -1.07
