17

N       0.45       5.41      24.07
Y      -1.81       5.39      25.29
N      -2.82       3.69      26.97
C      -3.30       7.90      26.11
C       1.38       5.98      24.87
C      -4.47       4.70      23.17
C       0.91       6.75      26.11
C       0.89       4.68      23.03
O      -3.21       6.68      26.48
O      -0.37       6.73      26.29
O      -3.58       4.79      24.07
O      -2.17       7.32      24.06
C      -1.89       3.08      27.75
C      -2.71       8.25      24.71
C      -4.11       3.45      27.26
C      -0.46       3.41      27.37
O      -0.29       3.86      26.20
