17

O       4.17      14.60       3.17
Y       2.79      13.31       4.39
C       1.47      11.41       2.25
C       2.90      11.08       1.88
C       5.11      11.43       2.38
C       3.73      16.15       4.97
O       1.27      11.79       3.43
C      -0.41      13.86       4.81
C       5.45      12.56       6.52
C       0.06      14.63       3.57
C       0.09      12.54       6.63
N       3.82      11.65       2.69
C       4.28      15.81       3.55
N       0.52      13.29       5.60
O       3.21      15.21       5.63
O       1.34      14.66       3.42
O       4.54      12.66       5.65
