28

H      21.70       0.01      13.41
H      19.79       0.97      12.15
H      19.88       4.44      14.72
H      21.76       3.48      15.97
H      15.62       0.03      11.85
H      17.55       0.98      13.11
H      17.46       4.44      10.55
H      15.57       3.49       9.30
N      18.67       3.38      12.63
H      18.66       4.40      12.65
O      23.53       0.02      15.04
O      23.42       1.73      16.56
C      21.86       1.67      14.78
C      21.28       0.98      13.70
C      20.21       1.51      13.00
C      19.69       2.77      13.35
C      20.28       3.47      14.43
C      21.34       2.93      15.13
C      23.01       1.10      15.51
O      13.81       0.03      10.24
O      13.90       1.73       8.72
C      15.47       1.69      10.49
C      16.05       0.99      11.57
C      17.13       1.51      12.26
C      17.65       2.78      11.91
C      17.06       3.48      10.84
C      16.00       2.94      10.13
C      14.32       1.11       9.76
