28

C      10.57       1.22       9.69
C       9.42       1.90      10.32
C       8.91       1.49      11.56
C       7.84       2.16      12.15
C       7.24       3.26      11.50
C       7.74       3.67      10.25
C       8.82       3.00       9.67
C       1.85       6.69       9.70
C       3.01       6.01      10.32
C       3.52       6.43      11.57
H       9.35       0.63      12.07
C       5.18       4.65      11.50
C       4.68       4.25      10.25
H       9.22       3.33       8.72
C       4.59       5.75      12.15
H       7.46       1.83      13.11
H       7.31       4.53       9.75
C       3.61       4.91       9.68
H       3.08       7.29      12.07
H       4.98       6.09      13.11
H       5.12       3.38       9.75
N       6.21       3.96      12.13
H       3.20       4.58       8.73
H       6.21       3.95      13.15
O      11.09       1.80       8.66
O      10.98       0.12      10.21
O       1.33       6.12       8.67
O       1.44       7.79      10.22
