28

C      14.71       6.81       9.76
H       7.34       7.91      13.43
H       9.26       6.97      12.17
H       9.17       3.49      14.72
H       7.28       4.44      15.98
H      13.40       7.91      11.84
H      11.48       6.96      13.10
H      11.56       3.48      10.55
H      13.45       4.44       9.29
N      10.36       4.55      12.63
H      10.37       3.53      12.65
O       5.50       7.90      15.04
O       5.60       6.19      16.55
O      15.22       7.89      10.24
O      15.12       6.19       8.72
C       7.17       6.25      14.78
C       7.76       6.95      13.71
C       8.83       6.42      13.01
C       9.35       5.16      13.36
C       8.76       4.45      14.43
C       7.70       4.99      15.14
C       6.02       6.82      15.51
C      13.55       6.24      10.49
C      12.97       6.94      11.56
C      11.90       6.42      12.26
C      11.38       5.15      11.91
C      11.96       4.45      10.84
C      13.03       4.99      10.13
