14

C       5.21       8.15       6.85
C       6.06       7.55       5.79
C       4.84       7.42       8.00
C       4.02       7.97       8.96
C       3.88       9.99       7.70
C       4.74       9.47       6.75
O       2.56       9.68       9.61
O       6.13       6.27       5.73
O       6.66       8.36       5.00
H       5.21       6.40       8.13
H       3.73       7.50       9.89
H       3.47      11.00       7.70
H       5.07      10.10       5.93
N       3.49       9.22       8.77
