14

H      -6.26       8.64       7.74
H      -7.86       9.54       9.51
C      -8.00      11.49       8.59
C      -8.86      12.10       9.65
C      -7.63      12.22       7.44
C      -6.82      11.67       6.48
H      -8.00      13.24       7.31
H      -6.53      12.14       5.55
C      -7.53      10.17       8.68
C      -6.68       9.65       7.74
O      -8.93      13.37       9.70
O      -9.45      11.28      10.44
N      -6.29      10.42       6.67
O      -5.35       9.96       5.83
