28

N      -2.72       8.05       5.23
H      -1.82       8.67       8.40
H      -3.18       9.62       6.48
N       3.32       5.05       5.22
H      -0.96       5.26       5.91
H      -0.89       6.59       9.40
H      -0.47       5.21       8.40
H      -2.34       6.37       4.10
H       2.42       4.42       8.40
H       3.78       3.48       6.47
H       1.56       7.83       5.91
H       1.49       6.49       9.40
H       1.07       7.88       8.41
H       2.94       6.73       4.09
O      -3.36       8.62       4.23
C      -1.88       8.13       7.46
C      -2.61       8.70       6.43
O       3.96       4.48       4.22
C      -1.41       6.24       6.08
C      -1.25       6.88       7.32
C      -0.44       6.30       8.44
C      -2.15       6.82       5.06
C       2.49       4.96       7.46
C       3.21       4.40       6.42
C       2.01       6.85       6.08
C       1.86       6.21       7.32
C       1.04       6.78       8.44
C       2.74       6.28       5.06
