28

C       1.98      -0.30       9.36
C       2.14       0.34       8.12
C       2.95      -0.23       7.00
C       1.25       0.27      10.38
O       7.35      -2.07      11.21
O       0.04       2.07      11.22
H       5.81      -2.12       7.03
H       7.17      -3.07       8.95
H       4.95       1.29       9.53
H       4.88      -0.04       6.04
H       4.46       1.34       7.04
H       6.34       0.18      11.34
H       1.57       2.13       7.04
H       0.21       3.07       8.97
H       2.43      -1.28       9.53
H       2.50       0.06       6.04
H       2.92      -1.33       7.03
H       1.05      -0.18      11.34
C       5.87      -1.58       7.98
C       6.60      -2.15       9.01
C       5.40       0.31       9.36
C       5.24      -0.33       8.12
C       4.43       0.25       7.00
C       6.14      -0.27      10.37
N       6.71      -1.50      10.21
N       0.67       1.50      10.22
C       1.51       1.59       7.98
C       0.78       2.15       9.01
