40

H       0.90       2.07       8.33
H      -1.12       1.74       9.71
H      -9.00      -1.91       1.65
H      -6.70      -1.43       2.41
H      -8.08      -1.33       6.49
H      -0.78      -1.81       5.73
H      -6.66       1.15       4.56
H      -2.95      -1.53       6.41
H      -1.29       0.97       4.82
H       0.81       1.69       5.88
H      -2.05      -2.76       3.73
H      -2.11      -1.11       3.43
H      -3.80       0.04       8.86
H      -3.41       1.36       9.81
C      -0.26      -1.87       3.64
C      -5.84       0.57       4.95
C      -4.71       1.21       5.47
C      -3.65       0.44       6.00
C      -3.74      -0.95       5.98
C      -4.87      -1.58       5.45
C      -5.94      -0.81       4.95
C      -1.28       1.17       5.88
C      -0.08       1.57       6.48
C      -0.03       1.77       7.86
C      -4.88      -3.04       5.43
C      -1.18       1.59       8.64
C      -2.40       1.23       8.04
C      -2.44       1.01       6.64
C      -4.70       2.66       5.47
C      -8.79      -1.81       2.71
C      -7.49      -1.55       3.14
C      -7.23      -1.37       4.51
C      -8.26      -1.49       5.44
C      -9.56      -1.75       5.00
N      -1.61      -2.00       3.18
N      -3.58       1.06       8.83
O      -3.74      -3.66       5.44
O      -6.02      -3.66       5.44
O      -3.57       3.29       5.44
O      -5.84       3.29       5.44
