22

H       1.71       5.21      12.63
H       0.06       8.13       9.94
H      -0.14       5.60      14.21
H       1.83       6.51      10.50
H      -4.14       9.34      11.88
H      -4.19       8.15      14.09
O      -1.32       6.77      15.93
O      -3.46       6.16      15.61
O      -3.21       9.72       9.50
O      -1.06      10.25      10.03
C      -2.29       7.24      13.83
C      -3.31       8.72      12.19
C      -1.10       7.79      11.73
C      -2.19       8.64      11.37
C      -1.15       7.05      12.97
C      -2.35       6.68      15.21
C      -2.15       9.57      10.21
C      -3.34       8.04      13.43
C       0.94       5.93      12.38
C       0.01       7.58      10.87
C      -0.11       6.14      13.27
C       1.00       6.66      11.18
