18

O      12.97      13.27       7.45
O      17.81      15.02       6.19
O      15.83      14.28       6.46
O      16.45      17.29       7.75
Co      16.30      16.51       5.92
Co      14.53      14.65       8.01
H      16.62      18.29       7.79
C      16.67      16.56       8.83
C      13.07      12.62       8.57
C      17.10      13.99       6.53
C      16.68      17.53       3.59
C      13.54      16.95       6.98
O      16.82      18.12       4.73
O      14.32      16.20       6.28
O      16.05      15.41       9.04
O      16.28      16.31       3.78
O      13.20      16.35       8.08
O      13.97      13.13       9.32
