48

Eu      13.60      19.45      14.91
Eu      15.46      16.68      12.13
C      13.85      22.27      15.58
N      12.42      18.97      17.24
N      10.98      19.74      15.04
C      12.98      18.91      11.50
C      13.14      18.63      18.31
N      16.63      14.35      12.61
N      18.08      16.54      11.84
C      12.54      18.26      19.54
C       8.94      18.62      18.54
C      10.37      18.60      18.51
C       8.88      19.41      16.23
C       8.17      19.87      15.09
C       8.89      20.27      13.97
C      10.29      20.19      13.99
C      11.16      18.25      19.63
C      11.06      18.97      17.32
C      10.30      19.38      16.16
O      15.35      18.28      16.21
O      16.07      17.10      14.41
H      14.22      18.62      18.19
H      13.17      18.00      20.38
H      10.67      17.96      20.56
H       8.42      18.31      19.45
H       7.13      19.03      17.46
H       7.08      19.91      15.11
H      10.89      20.49      13.12
O      14.40      21.45      16.39
O      13.04      21.86      14.67
O      12.92      19.67      12.52
O      13.47      17.74      11.44
H       8.38      20.64      13.09
O      13.71      15.34      13.30
O      13.05      17.17      14.48
O      14.66      15.19      10.13
O      16.01      16.91       9.73
O      16.14      19.07      11.91
O      15.59      20.14      13.84
C      13.09      15.91      14.25
C      15.20      16.00       9.32
C      16.08      20.08      12.67
C      15.92      13.27      12.95
C      18.77      17.60      11.39
C      18.76      15.42      12.20
C      18.00      14.26      12.61
C      16.00      17.33      15.66
C       8.22      19.01      17.44
