48

C       9.54       8.00       8.10
C      10.26       6.91       8.49
C       9.60       5.70       8.89
C      10.31       4.56       9.35
C       9.59       3.44       9.74
C       8.19       3.45       9.66
C       8.18       5.62       8.85
C       7.42       6.78       8.45
Eu       4.88       4.37       8.94
Eu       3.04       1.59       6.16
N       1.87       2.08       3.82
N       0.42       1.31       6.02
N       6.06       6.70       8.44
N       7.50       4.50       9.22
O       4.79       2.76       4.85
O       5.47       3.95       6.65
C       3.29      -1.23       5.50
C       2.41       2.12       9.56
C       2.58       2.42       2.75
O       3.81      -0.41       4.68
O       2.46      -0.83       6.40
O       2.39       1.35       8.55
O       2.88       3.30       9.61
O       3.13       5.68       7.77
O       2.45       3.88       6.58
C       0.50       2.08       3.74
C      -0.27       0.86       7.08
C      -0.26       1.67       4.90
C       2.50       5.13       6.82
O       4.11       5.85      10.94
O       5.45       4.12      11.37
O       5.54       1.98       9.17
O       5.04       0.92       7.22
H       4.26       7.65       8.10
H       5.31       9.85       7.48
H       7.81      10.03       7.44
H      10.05       8.91       7.79
H      11.35       6.93       8.51
H      11.40       4.57       9.39
H      10.10       2.55      10.12
H       7.59       2.59       9.96
C       5.42       3.71       5.40
C       4.63       5.02      11.76
C       5.51       0.97       8.41
C       5.34       7.78       8.10
C       5.94       9.00       7.74
C       7.32       9.10       7.72
C       8.11       7.98       8.08
