9

H       0.40       6.21      15.29
C       2.51       9.50      13.87
H       2.91      10.48      13.64
N       2.26       7.34      13.99
N       0.29       7.23      15.36
C       1.30       7.91      14.72
H       0.19       7.48      16.35
N       1.41       9.28      14.67
N       3.02       8.36      13.44
