9

H       8.24       0.13      21.00
N       5.17       0.03      22.12
N       5.96       0.02      24.19
N       7.05       0.01      23.34
H       3.86       0.05      23.84
H       6.79       0.34      20.12
C       4.87       0.04      23.45
N       7.25      -0.09      20.92
C       6.54       0.00      22.09
