9

C      -2.45       9.48      10.19
N      -1.35       9.27       9.38
N      -2.21       7.32      10.04
H      -0.33       6.21       8.76
N      -0.23       7.23       8.68
H      -2.85      10.46      10.42
C      -1.24       7.90       9.32
H      -0.12       7.47       7.70
N      -2.96       8.34      10.60
