9

N      11.22       0.03      11.28
N      12.32       0.02      12.14
C      11.74       0.02      10.04
C      13.40       0.00      11.40
N      11.03       0.09       8.86
H      10.04      -0.13       8.95
H      14.42      -0.01      11.79
N      13.10       0.00      10.07
H      11.50      -0.39       8.09
