9

N      -2.56       4.53      22.15
N      -3.67       6.29      20.95
H      -1.90       3.39      23.87
N      -3.52       6.15      23.37
H      -3.04       6.12      20.17
H      -3.96       7.26      21.03
C      -2.41       4.27      23.48
C      -3.25       5.71      22.13
N      -2.97       5.20      24.23
