9

C       9.39       2.59      10.18
H      10.44       2.73      10.42
H       5.50       2.80       8.71
N       7.42       1.70      10.00
C       7.42       2.85       9.31
N       8.67       1.55      10.56
H       6.49       3.84       7.81
N       8.66       3.45       9.40
N       6.33       3.41       8.71
