9

C       2.44       4.26      11.40
N       3.57       6.13      11.28
C       3.29       5.69      10.04
N       3.71       6.27       8.86
H       1.93       3.40      11.79
N       3.01       5.19      12.14
H       4.02       7.24       8.95
H       3.07       6.11       8.09
N       2.59       4.52      10.07
