9

N       9.64       3.48      21.44
H      12.80       2.80      20.82
H       7.82       2.77      22.42
N       9.58       1.57      22.58
C      10.87       2.87      21.38
N      11.98       3.42      20.81
N      10.85       1.72      22.05
C       8.87       2.62      22.20
H      11.84       3.85      19.90
