9

N       7.78       6.65       2.62
N       6.93       8.59       1.95
N       8.90       8.70       3.32
N       6.17       7.58       1.40
C       6.68       6.43       1.82
H       6.28       5.45       1.59
C       7.89       8.02       2.68
H       8.79       9.72       3.23
H       8.98       8.46       4.31
