42

C       3.85       6.87       2.80
C       5.49       6.31       1.47
C       6.47       6.25       0.48
C       7.35       5.17       0.44
C       8.43       5.12      -0.47
N       4.35       5.71       3.32
N       4.51       7.26       1.71
C       9.34       4.09      -0.46
C       9.18       3.04       0.48
C       8.10       3.01       1.35
C       5.38       5.28       2.47
C       4.02       5.25       4.67
C       2.86       4.09       7.05
C       3.52       6.27       5.64
C       2.97       5.65       6.99
C       3.02       3.28       5.96
C       3.69       3.78       4.74
C       7.18       4.07       1.39
C       6.15       4.13       2.36
C       2.27       7.10       5.59
C       1.82       6.63       6.79
C       5.16       3.99       6.80
C       5.03       4.32       5.26
C       2.74       3.39       8.40
O       2.25       2.17       8.33
O       3.16       3.93       9.42
O       5.22       4.73       7.80
H       3.10       7.47       3.29
H       6.55       7.05      -0.25
H       8.55       5.96      -1.16
H       5.63       4.10      -1.10
H       5.35       2.25       0.53
H       8.00       2.18       2.04
H       6.02       3.28       3.03
H       4.43       6.90       5.83
H       3.57       5.94       7.85
H       2.91       2.21       6.09
H       3.65       3.22       3.82
H       1.98       7.96       4.99
H       1.09       6.97       7.51
H       5.22       2.89       6.93
H       5.96       4.19       4.69
