42

H       3.77      15.66       7.47
H       0.32      19.20       7.05
H       2.90      20.11       5.96
H       1.24      20.05       4.10
H       1.52      18.42       2.25
H      -1.13      16.91       2.18
H       0.85      15.92       3.28
H       2.44      13.12       6.90
H       3.30      11.09       5.94
H       3.96      12.85       2.21
H       3.22      15.13       3.22
H       4.89      13.96       7.96
H       5.78      11.44       6.97
H       1.65      12.01       2.89
H       0.91      14.26       4.19
N       2.36      17.24       7.26
N       2.52      15.63       5.71
O       4.62      10.62       2.17
O       1.65      11.14       4.73
O       3.71       9.52       3.93
C       3.02      16.15       6.87
C       1.38      17.47       6.31
C       0.40      18.46       6.25
C      -0.48      18.51       5.17
C      -1.56      19.42       5.12
C       2.11      19.40       4.09
C       2.27      18.46       3.04
C      -1.23      17.60       3.01
C      -0.31      17.56       4.07
C       0.72      16.59       4.13
C       1.49      16.48       5.28
C       2.85      14.28       5.25
C       4.01      11.90       4.09
C       3.35      13.31       6.27
C       3.90      11.96       5.65
C       3.85      12.98       3.28
C       3.18      14.21       3.78
C       4.13      10.54       3.39
C       4.60      13.35       7.10
C       5.05      12.16       6.63
C       1.71      12.14       3.99
C       1.84      13.69       4.32
