70

C       2.10       7.58      39.50
C       3.75       5.60      40.85
C       2.99       5.39      42.03
C       3.54       5.71      43.32
C       4.88       6.18      43.43
C       5.67       6.32      42.25
C       5.09       6.06      40.95
C       5.91       6.22      39.80
C       7.24       6.55      39.90
C       7.82       6.76      41.18
C       7.05       6.66      42.32
C       1.66       4.87      41.96
C       0.91       4.70      43.11
C       1.43       5.06      44.37
C       2.71       5.57      44.47
C       5.44       6.54      44.75
C       5.85       7.86      45.00
C       6.30       8.25      46.25
C       6.42       7.31      47.29
C       6.06       5.98      47.05
C       5.56       5.60      45.80
C       6.94       7.80      48.63
C      -1.78       2.81      32.90
O      -2.93       2.35      33.17
O      -1.27       2.72      31.71
O       6.07       8.32      49.41
O       8.18       7.72      48.83
H      -2.28       2.82      35.55
H      -0.78       3.63      37.38
H       2.10       4.90      34.42
H       0.58       4.16      32.63
H       2.31       2.26      36.13
H       3.95       0.66      37.05
H       5.23       1.23      39.11
H       4.82       3.36      40.29
H       0.25       6.73      36.18
H       0.04       8.99      37.18
H       1.19       9.51      39.33
H       2.61       7.81      40.43
H       5.46       6.07      38.82
H       7.86       6.65      39.01
H       8.88       6.99      41.26
H       7.51       6.81      43.29
H       1.25       4.60      40.99
H      -0.10       4.29      43.04
H       0.82       4.94      45.26
H       3.10       5.86      45.44
H       5.77       8.60      44.20
H       6.57       9.28      46.43
H       6.16       5.23      47.84
H       5.25       4.57      45.62
C      -0.94       3.41      33.98
C      -1.32       3.28      35.32
C      -0.47       3.72      36.34
C       0.78       4.27      36.03
C       1.15       4.44      34.69
C       0.29       4.01      33.67
C       1.68       4.68      37.15
C       1.57       5.96      37.71
C       2.28       6.28      38.93
C       3.13       5.32      39.52
C       3.34       4.08      38.88
C       2.61       3.75      37.68
C       2.85       2.49      37.04
C       3.77       1.60      37.55
C       4.48       1.92      38.74
C       4.27       3.11      39.39
C       0.77       6.97      37.10
C       0.65       8.22      37.66
C       1.31       8.52      38.88
