60

H       1.48      38.06      22.28
H       2.53      40.00      23.46
H       3.10      37.53      26.94
H       2.02      35.62      25.77
H       5.38      43.28      25.22
H       6.39      44.20      29.32
H       3.69      40.97      28.41
H       8.37      47.31      26.35
H      10.11      48.63      25.14
H      10.61      45.43      22.32
H       8.93      44.09      23.53
H       1.28      40.88      31.29
H       0.52      39.48      33.20
H       4.42      39.77      34.97
H       5.21      41.16      33.03
C       1.08      35.55      23.24
C       1.68      36.72      23.95
N       7.58      44.80      25.65
C       2.42      39.04      23.95
N       3.67      41.78      30.87
C       2.74      37.65      25.92
C       2.88      38.89      25.27
O      11.94      48.97      23.56
C       4.50      42.02      26.70
O       0.82      35.68      22.00
O       0.81      38.13      35.14
O       2.70      38.56      36.35
O       7.03      45.99      27.56
C       6.01      43.85      27.23
O       0.89      34.49      23.94
C       5.32      43.07      26.29
C       6.91      45.00      26.84
O      11.94      47.48      21.83
C       5.85      43.59      28.59
O       3.59      41.68      24.51
C       5.01      42.56      29.02
O       5.88      42.37      31.25
C       4.34      41.77      28.07
C      10.46      47.13      23.65
C       8.53      45.63      25.01
C       8.86      46.91      25.47
C       9.16      45.10      23.87
C      10.11      45.85      23.19
C       2.14      36.58      25.27
C      11.52      47.91      22.96
C       4.92      42.25      30.49
C       3.30      41.09      32.04
C       1.97      40.64      32.09
C       4.19      40.79      33.08
C       3.74      40.02      34.16
C       2.43      39.53      34.20
C       1.95      38.68      35.32
C       1.54      39.86      33.16
C       9.83      47.64      24.79
C       3.82      41.21      25.63
H       3.85      39.63      26.91
H       7.46      43.89      25.22
H       2.93      41.88      30.18
N       3.51      39.92      26.00
C       1.83      37.96      23.31
