60

H      12.12      18.38      17.47
H      11.22      18.95      15.21
H      10.25      14.80      14.60
H      11.14      14.25      16.86
H       8.35      20.06      11.64
H       7.98      18.04       7.83
H      10.48      16.39      10.91
H       4.47      20.63       8.54
H       2.71      21.73       7.16
H       5.72      23.31       4.53
H       7.47      22.15       5.85
H       9.17      13.55       7.08
H      10.04      11.55       5.86
H      14.05      12.56       7.02
H      13.20      14.54       8.27
C      12.27      15.97      18.64
C      11.69      16.28      17.31
C      11.70      17.60      16.84
C      11.21      17.93      15.58
C      10.69      16.91      14.76
C      10.66      15.58      15.23
C      11.15      15.27      16.49
C      10.01      18.36      12.81
C       9.48      18.24      11.42
C       8.63      19.25      10.97
C       8.10      19.20       9.67
C       8.42      18.14       8.82
C       9.28      17.13       9.26
C       9.82      17.18      10.56
C       7.06      20.22       9.29
C       6.08      21.31       7.28
C       4.73      21.21       7.66
C       3.75      21.82       6.90
C       4.10      22.59       5.77
C       5.45      22.72       5.41
C       6.43      22.07       6.15
C       3.02      23.27       5.00
C       9.49      15.97       8.33
C      11.13      14.17       7.75
C      10.23      13.32       7.08
C      10.72      12.22       6.39
O      12.26      14.75      19.03
O      12.74      16.97      19.30
N      10.19      17.15      13.47
N       7.09      20.61       7.97
N      10.69      15.30       8.47
C      12.51      13.88       7.74
O      10.25      19.46      13.31
O       6.26      20.65      10.13
O       8.62      15.67       7.51
C      12.10      11.93       6.36
C      12.98      12.78       7.05
C      12.61      10.77       5.58
O      13.88      10.62       5.54
O      11.73      10.02       5.02
O       3.35      24.28       4.27
O       1.84      22.80       5.15
H       9.82      16.33      12.99
H       7.84      20.24       7.39
H      11.40      15.76       9.03
