60

H       8.79      26.05      25.21
O      13.27      17.26      23.93
O      13.34      18.45      21.99
O       2.23      31.74      23.56
O       2.23      30.25      21.83
O      11.46      21.34      36.35
O      13.35      20.90      35.14
O      10.58      24.45      24.51
O       7.14      28.76      27.56
O       8.30      25.20      31.25
H      10.31      22.40      26.91
H       6.72      26.66      25.21
H      11.23      24.64      30.18
C      12.02      19.35      25.27
N      10.66      22.68      26.00
N       6.60      27.57      25.64
N      10.50      24.56      30.87
H      12.69      20.83      22.28
H      11.64      22.77      23.45
H      11.07      20.30      26.94
C      13.08      18.32      23.24
H      12.14      18.39      25.77
C      12.34      20.73      23.30
C      11.75      21.81      23.95
H       7.80      26.99      29.32
H       4.06      31.40      25.13
H       3.56      28.19      22.32
C      12.48      19.49      23.94
H       5.80      30.08      26.35
C      11.28      21.66      25.27
H      12.89      23.66      31.29
H      10.48      23.74      28.41
C       8.85      25.85      26.28
C      11.43      20.42      25.92
C      10.35      23.98      25.62
C       9.67      24.79      26.70
H       5.24      26.86      23.53
H       9.74      22.55      34.97
H      13.64      22.25      33.20
C       8.33      26.38      28.59
H       8.96      23.94      33.04
C       9.17      25.35      29.02
C       9.83      24.55      28.07
C       2.65      30.68      22.96
C       7.26      27.77      26.84
C       9.26      25.05      30.49
C      10.87      23.87      32.04
C      12.20      23.41      32.09
C      12.62      22.62      33.16
C      11.73      22.30      34.20
C      10.42      22.80      34.15
C       9.97      23.57      33.08
C      12.21      21.45      35.32
C       5.31      29.68      25.46
C       4.34      30.41      24.78
C       3.71      29.89      23.64
C       5.65      28.40      25.01
C       8.17      26.63      27.22
C       4.05      28.61      23.18
C       5.01      27.87      23.87
