60

O       0.14      16.81      14.58
C       1.41      16.97      14.60
C       1.92      18.16      15.34
O       1.03      23.04      28.32
O      12.54      28.77      14.31
O      11.06      30.49      14.07
C       3.80      19.57      16.00
O       5.47      21.87      16.59
C       3.29      18.47      15.31
C       4.59      22.14      17.41
C       4.20      23.31      19.66
O       6.47      27.73      18.81
C       4.77      23.27      18.38
C       4.42      24.41      20.50
C       5.20      25.48      20.06
C       5.83      25.42      18.81
H      -0.00      18.75      16.10
H       0.88      20.70      17.37
C       5.61      24.32      17.98
H       4.86      19.81      15.96
H       3.96      17.83      14.74
H       3.57      22.48      20.00
C       3.82      24.51      21.87
H       6.05      24.25      16.98
C       3.51      21.81      24.43
C       2.46      24.00      24.54
H       4.11      21.09      23.88
H       2.25      24.97      24.10
H       3.23      20.53      26.14
C       1.68      22.11      27.74
H       1.37      24.39      26.36
C       8.61      27.08      16.84
C       9.72      26.45      16.26
C       8.41      28.46      16.68
H       9.87      25.38      16.39
H      11.51      26.72      15.08
N       3.38      21.48      17.51
N       3.74      23.30      22.55
C       3.23      23.06      23.84
N       7.70      26.25      17.52
C       3.02      21.50      25.69
H       5.34      26.36      20.69
C       2.24      22.43      26.40
C       1.98      23.68      25.81
C       6.68      26.59      18.40
C      10.63      27.20      15.52
O       3.45      25.59      22.34
H       9.17      30.26      15.74
C      10.43      28.57      15.32
H       7.57      28.95      17.16
H       2.68      21.91      18.10
H       4.23      22.52      22.12
H       7.86      25.25      17.40
C       1.06      18.98      16.09
C       9.32      29.19      15.90
O       2.28      16.22      14.06
C       1.56      20.07      16.79
O       1.89      20.93      28.19
C      11.41      29.34      14.50
C       2.93      20.37      16.75
