60

N      24.79       6.57       8.37
H      24.45       6.86       7.46
N      20.72       1.69       8.73
N      24.63       4.70       3.50
H      20.84       2.60       9.16
H      25.37       4.60       4.19
H      26.82       8.43      12.09
H      25.77       6.49      10.92
H      25.20       8.96       7.44
H      26.27      10.87       8.61
H      22.92       3.21       9.16
H      21.91       2.29       5.05
H      24.60       5.52       5.97
H      19.93      -0.82       8.02
H      18.19      -2.14       9.24
H      17.69       1.06      12.06
H      19.37       2.39      10.85
H      27.02       5.61       3.09
H      27.78       7.00       1.18
H      23.88       6.72      -0.59
H      23.09       5.33       1.34
O      27.41      12.00      10.44
O      27.48      10.80      12.38
O      16.36      -2.48      10.82
O      16.36      -0.99      12.55
O      25.60       7.93      -1.97
O      27.49       8.36      -0.76
C      27.21      10.94      11.14
C      26.62       9.77      10.43
O      21.27       0.50       6.82
C      26.47       8.53      11.07
O      22.42       4.12       3.12
C      25.88       7.45      10.43
C      25.42       7.60       9.11
C      25.56       8.84       8.46
C      26.16       9.91       9.11
C      24.48       5.28       8.75
C      23.80       4.47       7.68
C      22.98       3.41       8.09
C      22.29       2.64       7.15
C      23.29       3.93       5.36
C      23.96       4.72       6.31
C      22.45       2.90       5.78
C      21.39       1.49       7.54
C      19.77       0.86       9.37
C      19.44      -0.42       8.91
C      18.47      -1.15       9.59
C      18.19       0.64      11.19
C      16.78      -1.42      11.42
C      19.14       1.39      10.51
C      17.84      -0.64      10.73
C      26.76       6.63       1.22
C      25.87       6.95       0.18
C      24.55       6.47       0.22
C      24.11       5.70       1.29
C      26.35       7.81      -0.94
C      23.38       4.24       3.89
C      25.00       5.40       2.34
O      24.71       4.80       9.87
C      26.33       5.85       2.28
