582

H      31.57       8.44      29.74
H      29.65       7.47      30.71
H      29.98      12.28      30.43
H      28.02      11.31      31.30
H      25.29      10.55      31.28
H      23.71      10.59      29.55
H      25.76       7.45      27.61
H      27.27       7.33      29.43
H      25.67       6.46      31.51
H      25.88       4.27      32.36
H      29.40       5.37      34.39
H      29.24       7.57      33.48
H      28.77      10.26      33.69
H      24.92       8.64      33.09
H      24.11       9.87      34.96
H      27.96      11.49      35.54
H      12.68       5.19      15.53
H      12.80       7.33      16.50
H      16.80       4.63      16.21
H      16.94       6.81      17.08
H      17.66       9.56      17.06
H      18.48      10.91      15.33
H      14.74      10.70      13.38
H      13.88       9.44      15.20
H      13.99      11.30      17.29
H      12.02      12.28      18.14
H      11.10       8.68      20.14
H      13.06       7.68      19.23
H      15.65       6.70      19.48
H      16.20      10.84      18.86
H      17.66      10.92      20.73
H      17.11       6.78      21.33
H      19.28      23.14       1.29
H      21.08      21.98       2.27
H      16.78      19.81       2.00
H      18.61      18.63       2.88
H      20.63      16.67       2.85
H      21.38      15.29       1.11
H      23.07      18.63      41.83
H      22.42      20.00       0.99
H      23.97      19.05       3.08
H      25.77      20.33       3.93
H      23.05      22.83       5.94
H      21.23      21.59       5.03
H      19.15      19.84       5.26
H      22.46      17.30       4.65
H      21.80      15.99       6.52
H      18.48      18.52       7.11
H     -10.52      28.40       8.41
H      -8.60      29.37       9.38
H      -8.93      24.55       9.10
H      -6.97      25.53       9.97
H      -4.24      26.29       9.95
H      -2.66      26.25       8.22
H      -4.71      29.39       6.28
H      -6.23      29.51       8.10
H      -4.62      30.38      10.18
H      -4.83      32.57      11.03
H      -8.36      31.47      13.05
H      -8.19      29.27      12.14
H      -7.72      26.58      12.36
H      -3.87      28.20      11.76
H      -3.07      26.97      13.63
H      -6.92      25.35      14.21
H       8.37      31.65      36.86
H       8.24      29.51      37.83
H       4.24      32.20      37.54
H       4.10      30.02      38.41
H       3.39      27.28      38.39
H       2.57      25.93      36.66
H       6.31      26.14      34.71
H       7.17      27.39      36.53
H       7.05      25.53      38.62
H       9.03      24.56      39.47
H       9.95      28.16      41.47
H       7.99      29.16      40.56
H       5.40      30.13      40.81
H       4.85      26.00      40.19
H       3.39      25.92      42.06
H       3.93      30.06       0.00
H       1.77      13.70      22.63
H      -0.04      14.85      23.60
H       4.27      17.03      23.33
H       2.43      18.21      24.21
H       0.42      20.17      24.18
H      -0.33      21.55      22.44
H      -2.02      18.21      20.50
H      -1.37      16.84      22.32
H      -2.93      17.79      24.41
H      -4.72      16.51      25.26
H      -2.00      14.01      27.27
H      -0.18      15.25      26.36
H       1.90      17.00      26.59
H      -1.42      19.54      25.98
H      -0.75      20.85      27.85
H       2.57      18.31      28.44
H      25.51      15.51      39.57
H      24.67      16.95      41.26
H      23.03      13.90      37.12
H      23.86      12.51      35.37
H      26.88      11.06      37.89
H      21.18      14.62      41.54
H      25.49      12.26      40.93
H      26.72      13.37      40.34
H      26.84      10.53      40.34
H      22.32      11.94      39.28
H      21.51      12.19      40.81
H      20.06      12.29      39.01
H      21.83       6.90      25.35
H      23.50       6.90      27.04
H      21.68       9.84      22.90
H      20.07       9.82      21.14
H      17.29       7.93      23.68
H      23.23      11.09      27.32
H      19.03       8.55      26.71
H      19.38       6.92      26.13
H      16.86       8.23      26.12
H      20.34      11.44      25.05
H      20.96      12.02      26.59
H      21.76      13.22      24.79
H      16.21      14.38      11.13
H      15.39      12.93      12.82
H      18.84      13.05       8.68
H      19.63      14.45       6.93
H      19.38      17.80       9.46
H      19.16      11.08      13.09
H      19.04      15.99      12.49
H      17.46      16.50      11.90
H      19.86      18.02      11.90
H      20.89      13.41      10.83
H      21.10      12.58      12.37
H      21.73      11.28      10.56
H      -4.46      21.33      18.24
H      -3.63      19.89      19.93
H      -1.99      22.94      15.79
H      -2.81      24.32      14.04
H      -5.83      25.78      16.56
H      -0.13      22.22      20.21
H      -4.44      24.58      19.60
H      -5.67      23.46      19.01
H      -5.79      26.30      19.01
H      -1.28      24.89      17.95
H      -0.46      24.65      19.48
H       0.98      24.55      17.68
H      -0.79      29.94       4.02
H      -2.46      29.94       5.71
H      -0.63      27.00       1.57
H       0.98      27.02      42.48
H       3.75      28.91       2.34
H      -2.18      25.74       5.99
H       2.02      28.29       5.38
H       1.67      29.92       4.80
H       4.19      28.61       4.79
H       0.71      25.40       3.73
H       0.09      24.82       5.26
H      -0.72      23.61       3.46
H       4.83      22.46      32.46
H       5.66      23.91      34.15
H       2.21      23.79      30.01
H       1.41      22.39      28.26
H       1.66      19.04      30.79
H       1.89      25.76      34.42
H       2.00      20.85      33.82
H       3.59      20.34      33.23
H       1.19      18.81      33.23
H       0.15      23.43      32.16
H      -0.05      24.25      33.70
H      -0.68      25.55      31.89
H      28.03       0.06      33.06
H      27.95       2.26      32.13
H       4.56      35.81      34.90
H       4.48      33.57      35.68
H       8.36      33.95      37.24
H      27.53       3.89      35.99
H      30.07       0.46      36.87
H       9.28      36.68      35.35
H       9.84      35.74      37.97
H      27.50       0.65      37.79
H      28.22       2.26      37.93
H      26.05       2.16      38.73
H       7.36      12.77      18.83
H       9.30      11.73      17.90
H       7.29      15.03      20.72
H       5.36      16.17      21.48
H       3.78      12.58      22.98
H      10.74      10.91      21.77
H       6.57      10.54      22.57
H       5.71      10.49      21.03
H       4.59      10.39      23.64
H       7.98      12.58      23.58
H       8.95      11.10      23.67
H      10.00      12.94      24.60
H      28.34      24.29       4.62
H      26.47      23.13       3.70
H     -12.22      23.02       6.46
H     -10.24      24.07       7.23
H     -12.50      27.24       8.80
H      25.27      21.95       7.55
H      26.97      25.86       8.43
H     -15.32      26.68       6.91
H     -14.79      27.63       9.53
H      28.09      23.54       9.35
H      26.34      23.36       9.49
H      27.51      21.53      10.29
H      -6.98      36.78      11.73
H      -6.90      34.58      10.80
H      16.49       1.03      13.57
H      16.57       3.26      14.35
H      12.69       2.88      15.91
H      -6.48      32.95      14.66
H      -9.02      36.38      15.54
H      11.77       0.16      14.01
H      11.21       1.10      16.64
H      -6.46      36.19      16.46
H      -7.17      34.58      16.60
H      -5.00      34.68      17.40
H      13.69      24.07      40.16
H      11.75      25.11      39.23
H      13.76      21.81      42.05
H      15.69      20.66       0.15
H      17.27      24.26       1.64
H      10.30      25.93       0.44
H      14.48      26.30       1.24
H      15.34      26.35      42.36
H      16.46      26.45       2.31
H      13.07      24.26       2.25
H      12.10      25.74       2.34
H      11.05      23.90       3.28
H      35.35      12.54      25.95
H      -5.43      13.71      25.03
H      33.26      13.81      27.79
H      31.28      12.77      28.56
H      33.55       9.59      30.14
H      -4.22      14.89      28.88
H      -5.92      10.97      29.76
H      36.37      10.16      28.24
H      35.84       9.21      30.86
H      -7.04      13.30      30.68
H      -5.29      13.48      30.82
H      -6.46      15.31      31.62
C      25.95      10.84      35.41
C      25.10       9.98      34.69
C      25.58       9.25      33.58
C      26.90       9.41      33.09
C      27.77      10.18      33.91
C      27.31      10.90      35.03
C      27.36       8.70      31.81
C      27.49       7.25      32.31
C      28.53       6.88      33.21
C      28.63       5.59      33.75
C      27.68       4.59      33.43
C      26.62       4.94      32.57
C      26.51       6.25      32.06
C      26.40       8.85      30.62
C      28.65       9.28      31.21
C      29.71       8.49      30.70
C      30.85       9.07      30.11
C      31.01      10.47      30.00
C      29.93      11.26      30.46
C      28.77      10.68      31.01
C      25.39       9.85      30.55
C      24.47       9.90      29.49
C      24.54       9.00      28.40
C      25.62       8.09      28.40
C      26.53       8.03      29.47
C      17.57       8.85      21.19
C      17.26      10.02      20.46
C      16.39       9.96      19.36
C      15.86       8.74      18.87
C      16.08       7.60      19.70
C      16.93       7.65      20.82
C      15.02       8.70      17.58
C      13.71       9.34      18.07
C      12.84       8.64      18.96
C      11.69       9.23      19.51
C      11.34      10.57      19.20
C      12.21      11.29      18.35
C      13.37      10.70      17.83
C      15.64       9.44      16.39
C      14.87       7.29      17.00
C      13.66       6.77      16.48
C      13.58       5.49      15.90
C      14.72       4.64      15.79
C      15.94       5.18      16.25
C      16.02       6.48      16.79
C      17.00       9.82      16.32
C      17.51      10.60      15.26
C      16.69      10.98      14.17
C      15.37      10.50      14.17
C      14.86       9.74      15.24
C      20.04      17.10       6.98
C      21.22      16.79       6.25
C      21.61      17.57       5.15
C      20.81      18.64       4.66
C      19.71      19.01       5.48
C      19.32      18.25       6.60
C      21.20      19.39       3.38
C      22.38      20.23       3.87
C      22.18      21.32       4.76
C      23.25      22.05       5.31
C      24.59      21.73       4.99
C      24.82      20.63       4.14
C      23.74      19.88       3.62
C      21.55      18.48       2.19
C      20.04      20.20       2.78
C      20.18      21.52       2.26
C      19.09      22.20       1.67
C      17.80      21.62       1.56
C      17.68      20.29       2.03
C      18.77      19.59       2.58
C      21.18      17.11       2.11
C      21.60      16.28       1.05
C      22.34      16.80      42.62
C      22.59      18.19      42.62
C      22.19      19.01       1.04
C      -4.90      26.00      14.08
C      -4.05      26.86      13.36
C      -4.53      27.59      12.25
C      -5.86      27.42      11.76
C      -6.72      26.65      12.58
C      -6.26      25.94      13.70
C      -6.31      28.14      10.48
C      -6.44      29.59      10.98
C      -7.48      29.96      11.87
C      -7.58      31.25      12.42
C      -6.63      32.25      12.10
C      -5.57      31.89      11.24
C      -5.46      30.59      10.73
C      -5.35      27.99       9.29
C      -7.60      27.56       9.88
C      -8.66      28.35       9.36
C      -9.81      27.77       8.78
C      -9.97      26.36       8.67
C      -8.88      25.57       9.13
C      -7.72      26.15       9.67
C      -4.34      26.99       9.22
C      -3.42      26.94       8.16
C      -3.49      27.83       7.07
C      -4.57      28.75       7.07
C      -5.48      28.81       8.14
C       3.47      27.99      42.52
C       3.79      26.82      41.79
C       4.66      26.87      40.69
C       5.19      28.10      40.20
C       4.96      29.24      41.02
C       4.12      29.19      42.15
C       6.03      28.14      38.91
C       7.34      27.50      39.40
C       8.20      28.20      40.29
C       9.36      27.60      40.84
C       9.71      26.27      40.53
C       8.84      25.55      39.68
C       7.68      26.14      39.16
C       5.41      27.39      37.72
C       6.17      29.55      38.32
C       7.39      30.07      37.81
C       7.47      31.35      37.23
C       6.33      32.20      37.12
C       5.10      31.65      37.58
C       5.02      30.36      38.12
C       4.04      27.02      37.65
C       3.54      26.24      36.59
C       4.35      25.85      35.50
C       5.68      26.34      35.50
C       6.19      27.10      36.57
C       1.00      19.74      28.31
C      -0.17      20.05      27.58
C      -0.56      19.26      26.48
C       0.24      18.20      25.99
C       1.34      17.83      26.81
C       1.72      18.59      27.93
C      -0.15      17.45      24.70
C      -1.34      16.61      25.20
C      -1.13      15.52      26.09
C      -2.20      14.79      26.64
C      -3.54      15.11      26.32
C      -3.77      16.21      25.47
C      -2.69      16.96      24.95
C      -0.50      18.36      23.52
C       1.01      16.64      24.11
C       0.87      15.32      23.59
C       1.95      14.63      23.00
C       3.24      15.21      22.89
C       3.37      16.55      23.36
C       2.28      17.25      23.91
C      -0.14      19.73      23.44
C      -0.55      20.55      22.38
C      -1.29      20.04      21.29
C      -1.54      18.65      21.29
C      -1.14      17.83      22.37
C      22.83      15.94      41.57
C      22.11      14.80      41.14
C      22.61      13.88      40.18
C      23.89      14.14      39.59
C      24.60      15.29      39.99
C      24.09      16.16      40.97
C      24.46      13.30      38.58
C      23.84      13.30      37.31
C      24.32      12.48      36.28
C      25.44      11.65      36.48
C      26.07      11.66      37.75
C      25.58      12.46      38.82
C      21.78      12.68      39.88
C      26.24      12.41      40.16
C      23.54       9.00      27.35
C      22.92      10.20      26.92
C      21.87      10.22      25.96
C      21.46       8.99      25.37
C      22.10       7.79      25.77
C      23.11       7.80      26.75
C      20.45       8.91      24.36
C      20.76       9.44      23.09
C      19.80       9.44      22.06
C      18.52       8.88      22.26
C      18.22       8.33      23.53
C      19.16       8.35      24.60
C      21.25      11.53      25.65
C      18.78       7.81      25.94
C      17.19      11.85      13.13
C      18.54      11.79      12.70
C      19.07      12.69      11.74
C      18.21      13.66      11.15
C      16.86      13.70      11.55
C      16.36      12.82      12.53
C      18.65      14.57      10.14
C      18.95      14.05       8.87
C      19.43      14.87       7.84
C      19.59      16.26       8.04
C      19.27      16.79       9.31
C      18.82      15.97      10.38
C      20.53      12.58      11.43
C      18.53      16.57      11.72
C      -1.78      20.90      20.24
C      -1.06      22.04      19.81
C      -1.57      22.96      18.85
C      -2.84      22.70      18.26
C      -3.55      21.54      18.66
C      -3.04      20.68      19.64
C      -3.41      23.53      17.25
C      -2.80      23.53      15.98
C      -3.27      24.36      14.95
C      -4.40      25.19      15.15
C      -5.02      25.17      16.42
C      -4.54      24.38      17.49
C      -0.74      24.16      18.55
C      -5.20      24.43      18.83
C      -2.50      27.83       6.02
C      -1.87      26.64       5.59
C      -0.83      26.62       4.63
C      -0.41      27.85       4.04
C      -1.06      29.04       4.44
C      -2.06      29.04       5.42
C       0.60      27.93       3.03
C       0.29      27.40       1.76
C       1.24      27.40       0.73
C       2.53      27.96       0.93
C       2.82      28.51       2.20
C       1.89      28.48       3.27
C      -0.20      25.30       4.33
C       2.27      29.03       4.61
C       3.86      24.99      34.46
C       2.51      25.05      34.03
C       1.97      24.15      33.07
C       2.83      23.17      32.48
C       4.19      23.14      32.88
C       4.69      24.01      33.86
C       2.40      22.26      31.47
C       2.09      22.79      30.20
C       1.62      21.97      29.17
C       1.45      20.58      29.37
C       1.78      20.05      30.64
C       2.23      20.86      31.71
C       0.52      24.26      32.76
C       2.52      20.27      33.05
C      27.76       3.28      33.98
C      27.65       3.08      35.38
C      27.65       1.78      35.95
C      27.82       0.65      35.09
C      27.92       0.85      33.70
C      27.88       2.15      33.15
C       6.53      36.23      35.58
C       5.38      35.43      35.39
C       5.33      34.11      35.86
C       6.41      33.53      36.57
C       7.57      34.34      36.73
C       7.66      35.67      36.24
C      27.44       1.68      37.42
C       8.93      36.44      36.36
C      10.18      11.19      19.75
C      10.01      11.29      21.15
C       8.90      11.95      21.73
C       7.88      12.47      20.87
C       8.06      12.38      19.47
C       9.20      11.77      18.92
C       6.69      13.09      21.36
C       6.55      14.49      21.19
C       5.41      15.17      21.66
C       4.37      14.50      22.35
C       4.51      13.09      22.48
C       5.63      12.37      21.98
C       8.89      12.10      23.21
C       5.66      10.87      22.06
C      25.68      22.45       5.54
C      25.91      22.46       6.94
C      27.04      23.11       7.51
C      27.93      23.82       6.66
C      27.70      23.81       5.26
C      26.61      23.12       4.71
C     -13.56      24.52       7.14
C     -12.30      23.92       6.95
C     -11.13      24.54       7.42
C     -11.16      25.76       8.13
C     -12.44      26.36       8.29
C     -13.64      25.78       7.80
C      27.23      22.98       8.98
C     -14.95      26.50       7.92
C      -6.71      33.56      12.65
C      -6.61      33.76      14.05
C      -6.61      35.06      14.62
C      -6.77      36.19      13.76
C      -6.87      35.98      12.37
C      -6.83      34.69      11.82
C      14.52       0.61      14.24
C      15.67       1.40      14.06
C      15.72       2.73      14.53
C      14.64       3.31      15.24
C      13.48       2.50      15.40
C      13.39       1.17      14.90
C      -6.40      35.16      16.09
C      12.11       0.39      15.02
C      10.86      25.65      41.08
C      11.03      25.55      42.48
C      12.15      24.89       0.40
C      13.17      24.37      42.20
C      12.98      24.45      40.80
C      11.84      25.06      40.25
C      14.36      23.75       0.03
C      14.50      22.35      42.52
C      15.63      21.67       0.33
C      16.67      22.34       1.02
C      16.54      23.75       1.15
C      15.42      24.47       0.65
C      12.16      24.74       1.89
C      15.39      25.97       0.72
C      -4.64      14.39      26.87
C      -4.86      14.38      28.27
C      -5.99      13.73      28.84
C      -6.89      13.02      27.99
C      -6.66      13.03      26.59
C      -5.56      13.72      26.04
C      34.61      12.32      28.47
C      33.34      12.92      28.28
C      32.17      12.30      28.75
C      32.21      11.07      29.46
C      33.49      10.47      29.62
C      34.69      11.06      29.13
C      -6.18      13.86      30.31
C      36.00      10.34      29.25
O      27.27      11.42      40.34
O      20.61      13.09      39.17
O      17.41       7.42      26.12
O      22.19      12.35      24.95
O      18.87      17.95      11.90
O      20.76      11.35      10.73
O      -6.22      25.42      19.01
O       0.44      23.75      17.84
O       3.63      29.42       4.79
O      -1.14      24.49       3.62
O       2.17      18.89      33.23
O       0.28      25.49      32.06
O      10.03      35.79      37.01
O      26.15       2.20      37.75
O       4.54      10.22      22.67
O      10.01      12.89      23.62
O     -14.93      27.78       8.57
O      27.42      21.60       9.32
O      11.01       1.05      15.67
O      -5.10      34.64      16.42
O      16.51      26.61       1.34
O      11.04      23.95       2.29
O      35.98       9.06      29.90
O      -6.37      15.24      30.64
