14

C       4.06      11.83      20.92
O       1.95      10.84      21.40
O       3.54       9.57      20.42
H       4.60      14.47      19.06
H       6.38      14.83      20.80
N       3.91      12.68      19.89
O       6.18      11.47      23.91
N       5.89      13.07      21.81
C       5.24      11.10      23.08
C       3.10      10.66      20.98
C       4.72      13.76      19.87
O       4.48      10.13      23.19
C       5.05      12.02      21.89
C       5.72      13.97      20.82
