14

O       1.92       0.25      16.23
C       3.17       0.15      16.05
O       3.88       1.00      15.44
C       3.38      -2.19      17.15
N       4.00      -2.91      18.11
C       2.19      -2.86      16.46
O       1.72      -3.89      17.14
H       6.65      -0.87      18.61
H       5.53      -2.96      19.53
C       3.90      -0.94      16.80
N       5.10      -0.53      17.25
C       5.71      -1.25      18.21
O       1.80      -2.47      15.37
C       5.11      -2.42      18.69
