114

Cr       4.48       3.86       9.38
Cr       2.73       6.80       9.40
Cr       1.06       3.82       9.49
Cr      -4.37       9.07      18.71
Cr      -1.00       8.89       0.10
Cr      -2.67       6.10      18.83
H       0.33       4.11       5.53
H       0.23       8.66      15.24
H       0.49       8.37      12.83
H       5.13       2.07      12.99
H       5.11       1.88      15.37
H       0.83       1.17      15.26
H       0.83       1.46      12.86
H       5.00       8.56      12.62
H       1.69       7.51       5.53
H       5.13       8.71      14.98
H       6.71       4.68      15.21
H       0.62       1.34       6.08
H       6.39       4.46      12.79
H      -2.58       6.56       3.98
H       0.53       4.43       3.25
H       1.68       5.78       3.44
H       1.85       5.05       5.61
H      -0.79       8.50       4.14
H       4.78       2.42       5.66
H       0.46       4.09      13.36
H       0.51       0.94       3.64
H       4.61       2.26       3.30
H       5.91       4.31       5.70
H       6.06       4.43       3.25
H       4.49       8.45       3.40
H       0.87       8.22       3.54
H       4.33       8.33       5.78
C       4.80       6.18       7.34
C       3.72       2.06       3.88
C       3.82       2.14       5.24
C       0.39       5.98       7.54
C       2.72       1.88       6.06
C       5.60       5.21       5.20
C       5.68       5.28       3.81
C       5.32       6.45       3.15
C       4.79       7.53       3.88
C       4.73       7.47       5.25
C       5.14       6.32       5.93
C       0.71       5.38       3.80
C       0.40       5.09      13.77
C       0.32       5.25      15.14
C       0.20       6.53      15.69
C       2.83       2.27       7.46
C       0.31       7.66      14.85
C       0.43       7.50      13.47
C       0.41       6.21      12.92
C       4.18       1.87      13.47
C       4.17       1.79      14.84
C       2.97       1.55      15.50
C      -0.42       6.41       3.56
C       1.77       1.39      14.77
C       1.77       1.52      13.40
C       2.97       1.78      12.75
C       5.38       7.70      13.16
C       5.01       6.26      11.26
C       5.45       7.78      14.52
C       5.90       6.69      15.28
C       6.32       5.51      14.65
C       6.17       5.41      13.27
C       5.64       6.49      12.54
C       0.02       6.23       6.13
C       2.69       1.00       1.95
C      -0.72       6.54       2.11
C       5.78       6.72       1.79
C       3.00       1.15      16.88
C      -0.37       6.70      17.02
C       0.59       5.98      11.49
C       6.12       6.92      16.69
C       2.96       2.26      11.40
C       0.05       7.78       4.15
C       0.58       7.58       5.58
C      -1.54       6.10       5.86
C      -1.72       5.94       4.32
C       0.78       5.11       5.32
C       1.50       1.51       5.47
C       1.42       1.32       4.08
C       2.56       1.57       3.29
Cl      -2.13       4.22       3.87
Cl      -2.36       4.78       6.78
Cl       0.31       3.80      16.15
Cl       0.28       9.04       6.59
Cl      -2.44       7.56       6.40
O       4.00       2.49       7.89
O      -1.44       5.64       1.60
O       6.74       6.04       1.29
O       5.00       5.07       7.94
O       5.70       8.01      17.12
O       1.92       0.70      17.36
O       4.13       0.92      17.41
O      -0.28       7.84      17.59
O      -1.19       5.81      17.41
O       6.98       6.21      17.32
O      -2.66       8.08      18.83
O       1.43       6.70      10.86
O       4.06       7.08       7.83
O       1.34       6.66       8.03
O       0.07       4.85       7.99
O       1.80       2.69       8.07
O       4.09       2.53      10.94
O       5.09       5.11      10.76
O       4.16       7.12      10.88
O       0.16       4.88      11.03
O       1.89       2.73      10.89
O       2.76       4.83       9.43
O       5.44       7.84       1.31
O       1.69       0.53       1.32
O       3.88       0.75       1.59
O      -0.52       7.66       1.55
