280

Zn      10.79       1.35      22.22
Zn       1.68       1.11       1.43
Zn      10.87      21.91       1.10
Zn       6.24      11.67      11.67
Zn      10.00      22.17      21.95
Zn       4.20       0.02       0.02
H      10.40      23.18      16.99
H       8.84      20.91       8.79
H       8.86      22.45       4.69
H       5.71       0.49       4.21
H       8.67      19.09      14.26
H      10.46       0.30      17.08
H       3.67       4.72       0.83
H       9.99       7.46      11.66
H       2.06       0.10       6.41
H       4.35      11.70       5.85
H       8.70      22.71      18.51
H       7.33       0.04       8.50
H      13.31      14.79      19.86
H      10.91      11.71       7.47
H       3.98       0.97      10.99
H       9.95      11.79       2.60
H       4.34       3.01       9.40
H       6.81       4.33       0.57
H      12.71      11.57      17.54
H       8.06      11.82       4.23
H       9.18       7.09      20.69
H       7.54       3.50      14.86
H       3.29       2.61       7.18
H       2.61       2.60      11.55
H      11.58      14.71      11.75
H       3.83       8.12      13.08
H      11.65      20.63      16.23
H       7.71       3.02       8.24
H      10.44      22.95       6.32
H      11.73      20.36       7.27
H       7.20      23.15       8.65
H       8.14      17.46      11.76
H      10.95      20.70      11.82
H       8.15      10.76       0.44
H       9.30      11.78       8.60
H      10.41       6.32      23.22
H       3.27      14.47       2.56
H       9.29      11.42      14.72
H      12.84      19.07      11.85
H       3.27      11.14       0.34
H       9.85      11.48      20.75
H      11.59       8.62      11.50
H       4.35       3.17      13.82
H       8.98      19.25       9.39
H       9.02       4.03      14.01
H       3.67       8.74       2.40
H      12.15       9.05      19.16
H      15.15      18.95      22.82
H       7.65      20.25      15.16
H       7.24       0.13      14.76
H       3.54       9.34       4.06
H      12.71      20.10       9.55
H       3.84      18.53       0.63
H      12.76      22.87      10.78
H      12.12       4.76      22.75
H       8.66      13.02      15.24
H       8.21      13.99       3.08
H       9.99      15.83      11.77
H      11.84      13.93      19.32
H       8.57      12.40       1.00
H      13.59      14.69      23.22
H       5.73       0.58      19.04
H       6.81      19.17       0.54
H      10.49      16.98       0.15
H       9.13      16.00      20.50
H       8.87       2.37      14.62
H       8.94       0.80      18.71
H       4.84      15.12       3.06
H       9.24      16.22       2.68
H       8.77       0.57       4.87
H      11.92      18.57      22.55
H       7.99      11.45      19.08
H       8.12      13.74      20.22
H       8.73       4.18       9.13
H      11.59      12.13      23.04
H       5.24      14.84       0.08
H       3.82      14.23       4.22
H      10.89      11.56      15.89
H       8.59      10.23       8.08
H       7.51      19.78       8.52
H      11.75       2.91      16.08
H       9.23      22.96      11.16
H       2.10       6.31       0.33
H       6.77       4.14      22.86
H      11.59       8.80      20.81
H       7.27      23.22      14.89
H       9.28       2.52       8.88
H       8.21       9.53       3.18
H       9.21       7.26       2.89
H       4.42       0.39      12.61
H      12.70      20.23      14.00
H       5.01       8.49       3.53
H       5.72      22.72       4.33
H       9.27       0.32      12.22
H       8.17       5.81      11.67
H      10.39      16.97      23.05
H       8.12       9.32      20.30
H       8.04      12.53      22.96
H       8.49      10.91      22.38
H       5.29       8.61       0.15
H      13.57       8.43      23.30
H      14.06      22.73      19.19
H      11.98      14.54      20.98
H      12.32      15.28      10.23
H      13.17       8.16      20.32
H       9.23      20.74      14.51
H      12.33      22.31      12.42
H       4.48       4.26      11.52
C      14.34      21.75      11.78
C       8.25      20.14      11.78
C       6.55       1.96      12.83
C      13.11      20.99      14.67
C       4.65       0.41      18.87
C       6.57      14.05      21.69
C      13.05      22.87       4.51
C      13.06      22.15      16.79
C       3.16       5.96      11.57
C       6.05       8.15      22.73
C      13.13      10.31      20.63
C       6.57      11.75       1.56
C       5.85       0.36       6.98
C      12.54      14.07      20.16
C       8.44      11.93      15.22
C      11.42      11.52      19.26
C       4.84      10.52       2.79
C       9.45       4.09      11.60
C       7.26      11.68       8.99
C      15.03      16.23      22.80
C       5.92       1.56       9.11
C       7.76       6.52      22.21
C       5.20      14.30      11.68
C       4.17       2.05       7.49
C       6.00      10.53       1.99
C       8.31       7.41      21.26
C       9.10      11.80       4.57
C      13.13      20.83       8.86
C       6.53      21.35      13.00
C       5.89      10.32      21.43
C       8.27      15.69      21.09
C       6.67       9.23       1.70
C       7.75      11.77       0.62
C       5.79      22.71       7.08
C      12.57      11.53      20.21
C       4.23       9.21       3.23
C       7.79       8.84       2.45
C       7.71       8.65      21.05
C      14.19      22.89      16.41
C       7.27      11.64      14.31
C      12.58      20.97       7.59
C       8.39       3.14       9.09
C       8.35       7.58       2.30
C       6.70      16.38       0.42
C       7.66      11.52      22.76
C       9.20       5.46      11.63
C      10.68      11.73       6.41
C      13.14      12.76      20.60
C       4.76       2.44      14.51
C       8.37      15.89       2.12
C       6.39       0.74      15.04
C      11.80      18.73      11.84
C       5.88       1.68      14.13
C      14.46      14.96      22.62
C       4.81      12.97       2.76
C      10.08      11.49      19.68
C       7.72      16.60      22.01
C       6.12      15.13       0.65
C       5.21       9.02      11.67
C       9.03      11.47      18.76
C      10.79       3.67      11.56
C      10.24       6.40      11.63
C       8.43      11.33       8.09
C       7.81       6.68       1.37
C      11.68      11.54      17.89
C       3.32      11.73       5.49
C       6.34      22.54       8.36
C       5.84      21.60       9.26
C       7.82      18.79      22.98
C       4.74       1.38      16.68
C      12.49       9.01      20.20
C       7.67      20.51      10.56
C       5.99       1.52      11.62
C       7.84      18.97       0.21
C      12.46      15.22      11.32
C      12.33      22.74       3.18
C       6.72       7.06       0.57
C       7.70      14.43      20.94
C       9.31      11.49      17.38
C       6.56       9.03      21.77
C       8.32       3.20      14.15
C       6.64       6.91      22.96
C       5.98      12.96       1.96
C       9.41      19.20      11.80
C       5.82       0.57      16.31
C       3.09      11.76       4.11
C       3.44       4.59      11.54
C       8.64      20.27       0.29
C       3.92       0.56      20.19
C      10.16      11.79       3.67
C       7.81       4.33      23.17
C      14.26      21.70      14.28
C      10.74      19.64      11.83
C       8.54      20.12      22.78
C       4.04       8.13      12.00
C       4.16      14.27       3.17
C      10.22      16.90      11.79
C      10.64      11.54      16.95
C       6.48      11.54      21.83
C       8.60       3.16       0.58
C       6.44       0.60       8.23
C       7.82      16.77       1.17
C      11.54      17.35      11.83
C      12.24      22.98      20.30
C       9.35      11.78       5.95
C      14.78      22.65      15.17
C       7.69      20.55      13.01
C      13.12      21.89       6.69
C      13.15      22.68      11.79
C      13.03      23.08      19.00
C       9.17      17.82      11.78
C       4.76       2.26       8.73
C       7.75       2.71      10.39
C       6.15       8.33       0.75
C      14.31      12.75      21.40
C       8.28      20.08       9.25
C       6.50      21.31      10.56
C       4.72       1.10       6.60
C       7.89       4.49       0.41
C       6.59       1.91      10.40
C       7.72       2.76      12.84
C       8.59       3.02      23.07
C       8.33      20.13      14.31
C       4.25      11.75       3.17
C       7.79      14.65       2.33
C       4.68       0.17       4.40
C       4.20       2.30      15.77
C       3.90       0.29       3.09
C       4.80       0.58      11.60
C       8.30       3.14      11.61
C       6.64      14.25       1.62
C      12.52      21.20      15.91
O       4.07       0.98       5.41
O       8.37      23.08      21.11
O      11.45       1.47      20.32
O      11.22      22.23      20.32
O       7.37      12.16      13.18
O       8.42       5.45       1.33
O       8.41       5.33      22.32
O       4.13       1.34      17.91
O       1.09       3.05       1.48
O       8.22      11.43      16.53
O       8.54       0.34      21.25
O      10.23      -0.06      23.38
O       8.24      11.84       6.79
O       9.69      20.28       1.01
O       2.28       0.01       0.00
O      11.48      21.80       3.01
O       4.26       6.82      11.50
O       8.53      22.93       2.14
O      12.42       2.14      23.18
O       2.87       1.04       3.07
O       7.33      11.17      10.13
O       4.00       2.15       0.40
O       8.34      17.82      22.05
O       5.16      10.15      12.21
O      12.65      16.51      11.89
O       5.18      13.20      11.09
O       8.43       0.25       2.27
O       4.14      21.13       0.20
O       9.61       3.00      22.32
O       9.40      20.23      21.86
O      12.41      22.29      17.98
O      12.53      21.93       5.45
O      12.29      21.15      22.98
O       8.45      17.98       1.06
