14

N      -4.65      -1.38      13.29
C      -3.77      -1.36      14.37
C      -3.53      -0.39      15.35
C      -2.56      -0.67      16.31
C      -3.06      -2.59      14.37
C      -2.10      -2.87      15.35
N      -3.52      -3.34      13.29
C      -1.86      -1.89      16.31
H      -1.12      -2.08      17.08
H      -1.58      -3.83      15.37
H      -4.10       0.53      15.38
H      -2.35       0.06      17.08
C      -4.45      -2.58      12.70
H      -5.00      -2.89      11.81
