14

H      15.29      16.67       5.42
C      15.80      15.65       2.25
C      15.07      16.02       3.39
C      15.81      16.38       4.51
H      16.51      14.51      -0.68
C      16.51      14.90       0.33
H      19.03      16.03       3.39
H      17.73      16.67       5.42
C      17.94      16.03       3.39
C      17.21      16.39       4.51
N      15.37      15.17       1.02
C      17.22      15.65       2.25
H      13.99      16.02       3.40
N      17.64      15.17       1.02
