14

N       4.14      15.35      14.65
N       5.28      17.31      14.64
C       5.22      15.22      15.51
C       5.68      14.11      16.24
C       6.86      14.28      16.96
H       3.51      17.02      13.46
C       5.93      16.44      15.51
H       5.14      13.17      16.24
C       7.56      15.49      16.95
C       7.12      16.60      16.24
H       7.26      13.44      17.52
C       4.23      16.61      14.16
H       7.67      17.53      16.23
H       8.49      15.56      17.52
