14

H       7.83      11.62       6.97
H       9.50      12.14       8.74
C       7.57      14.68       4.22
H       7.06      14.98       3.31
C       8.17      13.52       5.96
C       8.38      12.56       6.96
C       9.31      12.86       7.95
N       8.48      15.47       4.83
H      10.37      15.98       6.96
H      10.74      14.28       8.73
C       8.89      14.74       5.95
C       9.82      15.04       6.96
C      10.02      14.08       7.95
N       7.34      13.50       4.83
