14

C      11.84      -1.97       6.56
H      12.18      -2.99       6.40
C      10.84      -0.24       7.42
C      10.15       0.68       8.22
C      10.21       2.02       7.83
N      12.18      -0.95       5.73
C      11.55       0.17       6.27
C      11.59       1.51       5.88
N      11.04      -1.61       7.59
C      10.91       2.42       6.68
H       9.60       0.37       9.10
H       9.70       2.77       8.42
H      12.14       1.83       5.00
H      10.93       3.48       6.43
