14

C      -7.54      19.97      11.69
H      -7.03      20.93      11.71
H     -10.34      17.82       9.55
H     -10.72      15.58      10.57
N      -7.32      19.00      12.60
H      -7.81      16.36      13.66
H      -9.49      14.87      12.58
C      -8.15      17.94      12.21
C      -8.36      16.68      12.78
C      -9.29      15.85      12.17
C      -8.86      18.35      11.05
C      -9.79      17.51      10.44
C     -10.00      16.26      11.01
N      -8.45      19.65      10.74
