14

N      12.18       5.72       1.02
N      11.05       7.69       1.02
C      11.55       5.85       2.25
C      11.59       5.03       3.39
C      10.91       5.49       4.51
C      11.85       6.84       0.33
H      12.18       7.03      -0.68
H       9.62       8.46       3.39
H       9.71       7.01       5.42
H      12.14       4.09       3.39
H      10.93       4.89       5.42
C      10.84       7.08       2.25
C      10.16       7.52       3.39
C      10.21       6.70       4.51
