14

C      -7.55      14.69       4.21
H      -7.03      14.99       3.30
H     -10.34      15.99       6.96
H     -10.72      14.28       8.73
C      -8.15      13.52       5.95
C      -8.36      12.56       6.95
C      -9.30      12.86       7.94
H      -9.49      12.14       8.73
C      -8.86      14.75       5.95
C      -9.79      15.05       6.95
C     -10.00      14.09       7.94
H      -7.82      11.62       6.96
N      -7.32      13.51       4.83
N      -8.46      15.47       4.83
