14

C      10.88      19.30       7.42
C      12.03      19.44       8.22
C      13.15      18.72       7.83
H       7.83      19.52       6.40
H      14.06      18.78       8.42
N       9.60      18.50       5.73
H      12.03      17.15       4.99
N       9.60      19.81       7.59
C       8.88      19.30       6.56
C      12.03      17.78       5.87
C      13.15      17.91       6.68
C      10.88      18.48       6.27
H      12.03      20.06       9.11
H      14.06      17.37       6.42
