14

C      21.08      -3.44      11.69
H      21.65      -4.36      11.71
N      21.26      -2.49      10.75
C      20.34      -1.49      11.05
C      20.07      -0.26      10.44
C      19.09       0.54      11.01
N      20.12      -3.15      12.60
H      18.08      -1.40      13.66
H      17.62       0.79      12.58
C      19.63      -1.90      12.21
C      18.63      -1.09      12.78
C      18.38       0.13      12.16
H      18.86       1.51      10.57
H      20.61       0.06       9.55
