14

H      -4.49       9.55      23.78
H      -4.11      11.74      24.93
H      -8.06      11.61      26.70
H      -5.86      12.74      26.36
C      -6.49       9.37      24.59
C      -5.05      11.21      25.06
C      -5.25       9.99      24.42
C      -6.05      11.79      25.88
C      -8.27       8.11      24.53
H      -8.96       7.31      24.26
C      -7.50       9.94      25.41
C      -7.28      11.16      26.08
N      -7.01       8.19      24.04
N      -8.62       9.12      25.36
