14

C      13.38      12.14       2.28
C      14.38      12.41       3.23
C      14.63      11.42       4.18
C      13.92      10.20       4.19
H      12.40       8.98       3.24
H      14.15       9.46       4.95
C      11.92      12.17       0.66
H      11.35      12.50      -0.20
N      12.88      12.92       1.24
C      12.67      10.92       2.28
C      12.94       9.93       3.24
H      14.93      13.34       3.23
H      15.38      11.59       4.94
N      11.75      10.96       1.24
