14

H       4.11      14.31       5.63
H       2.36      16.08       5.75
C       4.46      12.83       1.81
C       3.78      14.00       3.51
C       3.54      14.60       4.75
C       2.57      15.59       4.81
N       3.53      13.64       1.28
H       1.59      15.77       1.52
H       1.13      16.80       3.74
H       5.00      12.09       1.22
C       3.07      14.41       2.35
C       2.11      15.43       2.41
C       1.87      16.00       3.66
N       4.66      12.99       3.13
