14

N      -2.92      -5.77      25.67
C      -2.49      -4.99      24.60
C      -1.71      -3.15      23.29
C      -2.09      -3.65      24.54
C      -3.16      -6.99      25.14
H      -3.53      -7.82      25.73
H      -1.39      -3.54      21.20
H      -2.05      -5.94      21.31
N      -2.92      -7.07      23.82
H      -2.05      -3.03      25.43
H      -1.39      -2.12      23.21
C      -2.49      -5.81      23.44
C      -2.09      -5.30      22.20
C      -1.71      -3.96      22.14
