14

N       4.66      20.42      13.65
C       3.78      20.40      12.58
C       3.55      19.43      11.59
C       2.57      19.71      10.64
H       1.60      22.87      11.57
C       2.11      21.92      11.59
C       1.87      20.93      10.64
C       3.07      21.63      12.58
N       3.53      22.39      13.65
C       4.47      21.62      14.25
H       5.01      21.93      15.13
H       1.13      21.12       9.86
H       4.12      18.51      11.57
H       2.36      18.99       9.86
