14

H      -2.51       5.65      18.72
H      -1.22       3.61      19.35
H       2.53       5.66      18.72
N       1.14       8.09      18.06
C       0.00       8.80      17.86
H       0.00       9.84      17.56
N      -1.13       8.09      18.06
H       1.24       3.62      19.35
C       0.72       6.82      18.44
C       1.44       5.67      18.76
C       0.71       4.53      19.10
C      -0.70       6.82      18.44
C      -1.43       5.67      18.76
C      -0.70       4.53      19.10
