36

C       9.77       5.66       3.48
H       7.85       7.02      -3.30
C       8.95       6.62       1.40
H       8.92       7.64       3.30
C       8.72       6.48      -1.40
H       7.61       8.33      -1.22
C      10.00       4.42       2.81
H       7.90       8.50       1.22
C      10.09       4.48      -2.82
H      11.28       4.06      -4.60
H      12.11       3.72      -3.08
H      10.80       2.60      -3.63
C      10.02       4.42       1.41
C      10.09       4.45      -1.41
C      10.70       3.41      -0.69
H      11.28       2.87       3.63
H       9.78       3.19       4.60
C      10.63       3.37       0.69
H       9.65       2.30       3.08
C      11.12       3.66      -3.58
C      10.20       3.13       3.58
H      11.19       2.59      -1.20
O      11.24       5.04       5.22
H      11.10       2.53       1.19
O       8.95       3.71      -5.22
C      10.44       5.92       4.78
O      10.39       7.10       5.31
C       8.58       4.85      -4.78
C       9.47       5.51       0.70
O       7.58       5.48      -5.31
C       9.42       5.48      -0.70
C       8.31       7.64       0.69
C       8.15       7.55      -0.69
C       9.17       6.71       2.78
C       8.53       6.34      -2.78
C       9.14       5.29      -3.48
