36

C       6.32       0.36      23.32
H       8.46       0.62      23.51
C       6.32      -0.37      30.29
C       7.56      -0.14      28.20
H       8.46      -0.62      30.10
H       9.72       0.17      25.59
C       7.56       0.13      25.40
C       5.14       0.05      29.62
H       9.72      -0.17      28.02
C       5.14      -0.05      23.99
H       4.18      -0.87      22.20
H       3.48      -1.42      23.72
H       3.16       0.28      23.17
C       5.12       0.04      28.21
C       5.12      -0.04      25.39
C       3.91      -0.04      26.11
C       3.91       0.04      27.49
C       3.92      -0.53      23.22
H       4.18       0.86      31.40
H       3.48       1.42      29.88
H       3.16      -0.28      30.43
H       2.95      -0.06      25.61
C       3.92       0.53      30.38
O       5.05      -1.32      32.02
O       5.05       1.32      21.58
H       2.95       0.05      28.00
C       6.22      -1.07      31.58
O       7.26      -1.62      32.11
C       6.22       1.07      22.02
O       7.26       1.62      21.49
C       6.34      -0.03      27.51
C       6.34       0.02      26.10
C       8.77      -0.09      27.50
C       8.77       0.09      26.11
C       7.54      -0.37      29.58
C       7.54       0.37      24.02
