36

C       9.14       5.29      16.88
C       9.77       5.66       9.92
H       7.85       7.02      16.70
C       8.95       6.62      12.00
H       8.92       7.64      10.10
C       8.72       6.48      14.80
H       7.61       8.33      14.62
C      10.00       4.42      10.59
H       7.90       8.50      12.18
C      10.09       4.48      16.22
C      10.02       4.42      11.99
H      11.28       4.06      18.00
H      10.80       2.59      17.03
H      12.11       3.72      16.48
C      10.09       4.45      14.81
C      10.70       3.41      14.09
C      10.63       3.37      12.71
H      11.28       2.87       9.77
C      11.12       3.66      16.98
H       9.65       2.30      10.32
H       9.78       3.19       8.80
C      10.20       3.13       9.82
H      11.19       2.59      14.60
O      11.24       5.04       8.18
O       8.95       3.71      18.62
H      11.10       2.53      12.21
C      10.44       5.92       8.62
O      10.39       7.10       8.09
C       8.58       4.85      18.18
O       7.58       5.47      18.71
C       9.47       5.51      12.70
C       9.42       5.48      14.10
C       8.30       7.64      12.71
C       8.15       7.55      14.10
C       9.17       6.71      10.62
C       8.53       6.34      16.18
