29

C      17.31      14.80      12.70
C      15.47      16.03      12.01
C      11.29      14.33      11.41
H      13.47      14.53       9.79
H      18.25      14.80      13.25
H       7.46      13.94      10.95
H      11.07      12.99      13.09
C      15.58      13.70      11.44
C       8.51      15.62       9.16
H      13.24      16.09      10.63
N      16.65      15.98      12.65
O       9.02      12.15      14.15
C       9.26      14.87      10.23
O       7.20      12.26      12.78
C       8.53      14.05      11.09
O       7.30      15.26       8.97
H      14.97      17.00      12.02
O       9.13      16.56       8.54
O      12.64      14.37      11.69
H      11.18      15.68       9.71
C      14.89      14.93      11.38
C      16.80      13.64      12.12
H      17.36      12.71      12.19
H      15.15      12.81      10.99
C      10.65      15.02      10.39
C      13.52      15.03      10.76
C      10.56      13.52      12.29
C       8.41      12.53      13.09
C       9.18      13.38      12.13
