29

C       7.65       5.04       6.91
C       5.46       4.67       7.82
C       8.42       7.68      12.85
C       9.87       5.74      12.92
H       7.50       7.17       8.73
N       5.16       3.78       6.86
H       9.68       4.37      11.27
O      11.53       5.47      14.58
H       4.69       4.83       8.57
O       8.64       9.37      14.48
C       9.33       5.30      11.72
H       7.08       7.83      11.17
H       9.85       7.32      14.41
O      11.09       3.73      13.17
C       6.69       5.33       7.89
O       7.89       5.49       9.89
C      10.91       4.92      13.61
C       7.34       4.11       5.91
C       9.43       6.95      13.48
C       7.87       7.24      11.63
H       5.80       2.77       5.17
O       6.86       9.47      13.07
C       6.08       3.51       5.92
H       6.08       6.50       9.59
H       8.63       5.51       6.94
H       8.06       3.85       5.14
C       7.93       8.94      13.51
C       7.00       6.24       9.05
C       8.34       6.05      11.07
