29

C       9.81       4.94       3.32
C      11.87       3.61       4.00
C      16.13       3.77       4.53
H      14.21       2.97       5.05
C      14.83       5.13       2.47
C      16.88       3.02       5.60
H      14.32       5.65       1.67
H      17.93       4.70       3.81
C       8.08       3.84       2.06
C       8.59       5.00       2.64
N       8.74       2.67       2.11
C      14.10       4.32       3.35
O      18.09       3.38       5.79
O      16.26       2.09       6.22
H       8.03       5.93       2.57
C       9.92       2.61       2.75
C      14.74       3.62       4.38
O      16.37       6.50       0.61
H      10.24       5.83       3.78
H      11.92       4.12       4.97
H      12.15       2.56       4.13
O      18.19       6.39       1.98
H       7.14       3.84       1.51
C      16.98       6.11       1.67
O      12.75       4.28       3.07
C      16.21       5.26       2.63
H      10.42       1.64       2.74
C      16.86       4.60       3.67
C      10.50       3.72       3.38
