29

C      15.96      11.69       1.28
C      15.52      12.90       1.84
C      18.39      12.40       5.71
C      18.70      13.31       6.87
C      16.06      13.35       3.05
C      17.74      13.61       7.85
C      17.46       9.71       1.25
C      19.31      15.14       8.84
N      20.23      14.86       7.91
C      14.48      13.72       1.15
H      16.76      13.13       7.82
H      17.89      11.48       6.03
H      15.71      14.27       3.49
H      19.59      15.88       9.59
H      19.31      12.14       5.17
C      16.97      10.96       1.91
O      18.53       9.18       1.69
H      15.54      11.33       0.35
O      13.86      13.17       0.18
C      18.05      14.53       8.85
C      17.52      11.41       3.13
O      16.75       9.28       0.28
H      18.31      10.82       3.59
O      14.30      14.91       1.59
O      17.50      13.16       4.87
C      17.05      12.60       3.69
H      20.70      13.81       6.19
C      19.93      13.97       6.94
H      17.33      14.79       9.62
