28

C       7.81      10.39       5.39
C       6.87       9.76       4.60
C       6.63       8.10       6.18
C       7.62       8.70       6.95
C       8.10       8.12       8.19
C       9.24       7.98      10.01
C      10.15       8.16      11.12
C      10.80       7.05      11.68
C      11.74       7.23      12.68
C      12.06       8.52      13.13
C      11.37       9.63      12.62
C      10.42       9.45      11.62
C      13.24       8.69      14.04
H       8.36       6.09      10.47
H       8.29      11.32       5.08
H       6.61      10.16       3.62
H       6.14       7.19       6.50
H      10.62       6.05      11.29
H      12.28       6.39      13.11
H      11.61      10.62      12.99
H       9.90      10.30      11.19
N       8.20       9.89       6.59
N       6.24       8.62       4.99
N       9.00       8.80       8.98
N       7.77       6.91       8.66
N       8.50       6.85       9.81
O      13.85       7.61      14.38
O      13.61       9.86      14.37
