28

H       6.59      15.04      13.18
H       6.65       9.81      18.56
H       8.33      10.97      20.02
H       8.80      13.94      17.14
H       4.32      15.08      12.35
H       2.66      14.74      10.53
H       3.33      10.51      10.65
H       5.05      10.82      12.45
N       6.75      11.23      17.05
N       8.70      12.51      18.65
N       5.94      12.32      14.66
N       7.17      14.22      14.98
N       6.44      14.28      13.84
C       7.13      10.73      18.25
C       8.07      11.37      19.04
C       8.31      13.02      17.46
C       7.33      12.42      16.69
C       6.84      13.01      15.45
C       5.70      13.15      13.63
C       4.79      12.96      12.52
C       4.14      14.08      11.96
C       3.20      13.90      10.96
C       2.88      12.60      10.51
C       3.57      11.50      11.02
C       4.52      11.67      12.03
C       1.70      12.43       9.60
O       1.09      13.51       9.27
O       1.34      11.26       9.28
