28

C       2.82       7.98       6.43
C       1.89       8.62       7.22
C       1.65      10.28       5.64
C       2.63       9.67       4.87
C       3.12      10.26       3.63
C       4.26      10.40       1.81
C       5.18      10.21       0.70
C       5.82      11.33       0.14
C       6.76      11.16      -0.87
C       7.09       9.87      -1.32
C       6.40       8.76      -0.81
C       5.45       8.93       0.20
C       8.27       9.70      -2.21
H       3.38      12.28       1.35
H       3.30       7.06       6.74
H       1.63       8.23       8.20
H       1.16      11.19       5.32
H       5.64      12.33       0.53
H       7.29      12.01      -1.29
H       6.65       7.77      -1.18
H       4.94       8.07       0.63
N       3.21       8.48       5.23
N       1.26       9.76       6.82
N       4.02       9.57       2.84
N       2.79      11.46       3.15
N       3.53      11.53       2.01
O       8.88      10.78      -2.56
O       8.66       8.53      -2.50
