66

H      -4.51      23.36      20.93
C     -11.00      26.06       8.70
C     -11.30      27.37       9.34
C     -10.75      27.69      10.59
C      -5.08      25.52      22.47
C      -5.37      25.34      21.01
C      -6.02      26.36      20.30
C     -13.50      30.38       8.70
C     -13.50      37.23      18.39
C     -12.51      36.32      19.04
O      -5.54      26.58      23.03
O     -10.32      25.22       9.39
O      -4.40      24.59      23.04
C     -11.96      35.25      18.32
H      -8.45      27.67      13.91
C      -8.75      28.83      15.56
O     -11.47      25.87       7.52
H     -12.25      30.72      11.07
C     -11.96      29.79      10.59
C      -9.97      30.95      15.56
C      -8.75      30.24      17.57
C     -11.30      35.62      21.01
C     -10.75      34.55      20.30
H     -10.08      33.86      20.82
C     -11.00      35.78      22.47
O     -13.90      38.23      19.07
O     -13.89      36.91      17.20
H     -10.82      32.79      15.32
C     -12.17      28.27       8.70
C     -11.06      28.91      11.22
C     -10.50      29.23      12.48
C     -10.05      29.49      13.59
C      -9.58      29.76      14.89
H      -7.58      29.92      19.21
C      -6.02      24.96      18.32
H      -6.29      24.78      17.28
N      -8.35      27.69      14.92
C      -5.36      23.95      19.04
C      -5.08      22.64      18.39
N     -10.76      31.87      14.92
N      -8.35      30.47      18.86
C     -12.17      36.52      20.38
C     -11.06      34.36      18.94
C     -10.50      33.28      18.21
C     -10.05      32.32      17.59
C      -9.58      31.19      16.91
O     -13.89      30.08       7.52
O     -13.89      31.40       9.39
C      -5.02      24.14      20.38
C      -6.34      26.19      18.94
O     -11.47      36.83      23.04
C      -7.60      28.08      17.59
C      -8.35      29.05      16.91
O     -10.32      34.85      23.03
C      -6.99      27.21      18.21
O      -4.40      21.79      19.07
O      -5.54      22.46      17.20
H     -10.08      26.97      11.07
H     -10.82      31.79      13.91
H      -6.29      27.28      20.82
H      -7.58      27.17      15.32
H     -12.25      35.11      17.28
H      -8.45      31.42      19.21
C     -12.51      29.47       9.34
H     -12.59      28.03       7.73
H     -12.59      37.35      20.93
