66

O      26.75       7.29       1.94
O      25.60       9.26       1.95
H      27.87      16.09      17.25
H      19.79      20.76       4.05
C      27.45       7.60       4.60
C      26.34       9.76       6.04
C      25.78      10.84       6.77
C      25.33      11.80       7.38
H      27.87       6.76       4.05
C      24.87      12.93       8.07
O      19.69      22.33       5.91
O      20.82      21.66       7.78
C      25.26      13.17       9.42
C      24.03      15.29       9.42
C      24.03      13.87       7.41
H      25.37      17.15      13.91
H      26.11      12.33      11.07
H      21.57      16.84       4.16
H      22.86      16.95       9.66
C      26.28      18.06      16.28
C      26.58      16.74      15.64
N      26.04      12.25      10.06
N      23.63      16.43      10.06
C      26.03      16.43      14.39
H      27.53       9.01       7.70
H      23.73      12.70       5.77
C      21.30      17.76       4.68
N      23.63      13.64       6.12
C      20.65      18.77       3.97
C      20.36      18.60       2.51
H      27.53      13.40      13.91
H      23.73      16.45      11.07
C      28.78       6.89       6.59
C      27.79       7.80       5.94
C      27.24       8.87       6.66
H      25.37      10.26       4.16
H      26.11      11.32       9.66
H      21.57      19.34       7.70
H      22.86      14.20       5.77
C      28.78      13.73      16.28
C      27.79      14.65      15.64
C      27.24      14.33      14.39
O      26.75      18.25      17.45
O      25.60      18.90      15.59
O      19.69      19.52       1.94
O      20.82      17.54       1.95
C      26.29       8.34       2.51
C      26.58       8.50       3.97
C      26.03       9.57       4.68
C      25.78      14.88      12.50
C      25.33      14.62      11.39
C      24.87      14.36      10.09
C      20.30      19.97       4.60
C      26.34      15.21      13.76
C      27.45      15.85      16.28
O      29.18       5.88       5.91
C      22.88      16.04       7.38
C      23.63      15.07       8.07
O      29.17       7.20       7.78
C      20.65      20.17       5.94
C      21.30      19.16       6.66
C      22.27      16.91       6.77
C      21.62      17.93       6.04
C      20.36      21.48       6.59
O      29.18      14.04      17.45
O      29.17      12.72      15.59
