66

O       3.82      18.25      17.45
O       4.96      18.90      15.59
H       2.69       6.76       4.05
H      10.77      20.76       4.05
O      10.88      19.52       1.94
H       2.69      16.09      17.25
O       9.74      17.54       1.95
C       3.12      15.85      16.28
C       4.23      15.21      13.76
C       4.79      14.88      12.50
C       5.24      14.62      11.39
C       5.70      14.36      10.09
C       5.31      13.17       9.42
C       6.53      13.87       7.41
C       6.53      15.29       9.42
H       5.20      10.26       4.16
H       4.46      11.32       9.66
C       4.28       8.34       2.51
C       3.98       8.50       3.97
C       4.54       9.57       4.68
H       9.00      19.34       7.70
H       7.70      14.20       5.77
N       4.52      12.25      10.06
N       6.93      13.64       6.12
C      10.20      21.48       6.59
C       9.92      20.17       5.94
C       9.27      19.16       6.66
H       3.03      13.40      13.91
N       6.93      16.43      10.06
H       3.03       9.01       7.70
H       6.84      12.70       5.77
H       6.84      16.45      11.07
H       5.20      17.15      13.91
H       4.46      12.33      11.07
C       1.78      13.73      16.28
C       2.78      14.65      15.64
C       3.32      14.33      14.39
C       1.78       6.89       6.59
C       2.78       7.80       5.94
C       3.32       8.87       6.66
C       3.12       7.60       4.60
C       4.23       9.76       6.04
C       4.79      10.84       6.77
C       5.24      11.80       7.38
O       3.81       7.29       1.94
O       4.96       9.26       1.95
C       5.70      12.93       8.07
H       7.70      16.95       9.66
H       9.00      16.84       4.16
C       8.29      16.91       6.77
C       7.68      16.04       7.38
C       4.28      18.06      16.28
C       3.98      16.74      15.64
C       4.54      16.43      14.39
O      10.88      22.33       5.91
O       9.74      21.66       7.78
C       6.93      15.07       8.07
O       1.39       7.20       7.78
C      10.26      19.97       4.60
O       1.39      14.04      17.45
O       1.39      12.72      15.59
O       1.39       5.88       5.91
C      10.20      18.60       2.51
C       9.92      18.77       3.97
C       9.27      17.76       4.68
C       8.95      17.93       6.04
