66

C       0.00      22.53      13.76
C       0.00      23.17      12.50
C       0.00      23.69      11.39
C       0.00      24.23      10.09
C       7.15      25.37       4.60
C       4.72      25.25       6.04
C       3.50      25.20       6.77
C       2.45      25.11       7.39
C       1.23      24.94       8.07
H      -8.08      25.42       4.05
O       9.49      24.73       5.91
H       0.00      20.76      17.25
H       8.08      25.42       4.05
O       8.35      24.08       7.78
O      -2.43      20.65      17.45
O      -3.57      21.32      15.59
C       0.00      25.19       7.41
C      -1.23      24.48       9.42
C       1.23      24.48       9.42
H      -5.96      24.59       7.70
H      -0.87      26.04       5.77
C      -8.42      24.57       6.59
C      -7.14      24.98       5.94
C      -5.94      24.92       6.66
N       0.00      25.65       6.12
H       2.17      22.40      13.91
H      -2.38      24.17      11.07
H       3.80      25.84       4.16
H       3.25      24.67       9.66
N      -2.41      24.26      10.06
N       2.41      24.26      10.06
C       2.50      21.15      16.28
C       1.21      21.55      15.64
C       1.21      22.18      14.39
H      -3.25      24.67       9.66
H      -3.80      25.84       4.16
C       4.73      25.62       4.68
C       5.93      25.67       3.97
C       5.92      26.01       2.51
H       5.96      24.59       7.70
H       0.87      26.04       5.77
H      -2.17      22.40      13.91
H       2.38      24.17      11.07
C      -5.92      26.01       2.51
C      -5.93      25.67       3.97
C      -4.73      25.62       4.68
C      -7.15      25.37       4.60
C      -4.72      25.25       6.04
C      -3.50      25.20       6.77
C      -2.45      25.11       7.38
C      -1.23      24.94       8.07
O      -9.49      24.73       5.91
O      -8.35      24.08       7.78
C       8.42      24.57       6.59
C       7.14      24.98       5.94
C       5.94      24.92       6.66
O       2.43      20.65      17.45
C      -1.21      21.55      15.64
C      -1.21      22.18      14.39
O       3.57      21.32      15.59
O       7.06      26.13       1.94
O       4.78      26.14       1.95
C      -2.50      21.15      16.28
O      -7.06      26.13       1.94
O      -4.78      26.14       1.95
C       0.00      21.25      16.28
