15

O      19.37      11.02       7.14
O      20.32       7.36       1.86
O      21.48      11.56       7.62
O      18.54       8.48       2.60
C      20.66       8.83       3.73
C      21.07      10.16       5.68
H      23.17      10.50       6.07
C      20.62      10.93       6.86
C      22.45      10.03       5.40
H      19.09       9.62       5.00
C      20.16       9.55       4.82
C      19.79       8.18       2.73
C      22.06       8.76       3.55
H      22.45       8.23       2.69
N      22.94       9.35       4.36
