15

C      10.63      10.33      10.98
C       8.82       8.21      15.14
O       8.19       9.28      15.48
C      11.31       8.08      11.75
C       9.70       9.30      13.07
C      10.47       7.08      13.62
O      11.58      10.33      10.09
O       8.68       7.14      15.87
O       9.71      11.25      10.90
H      10.46       6.22      14.29
H      11.95       8.01      10.87
H       9.11      10.19      13.28
N      11.29       7.02      12.56
C      10.55       9.24      11.96
C       9.67       8.20      13.93
