15

O      14.43       2.50       7.55
O      13.43       6.61       2.55
C      12.58       4.62       3.65
C      13.44       3.58       5.62
C      12.51       5.71       2.66
C      14.28       3.58       6.83
C      12.64       2.46       5.31
C      11.81       3.47       3.44
H      12.65       1.60       5.97
C      13.42       4.68       4.77
H      14.02       5.56       4.98
H      11.18       3.40       2.55
N      11.83       2.40       4.25
O      14.90       4.66       7.20
O      11.54       5.71       1.78
