928

H      34.43      36.13       1.30
H       2.06       1.17      35.99
H       2.02      34.25      35.10
H      34.23      35.21      34.36
H      36.12      31.88       3.14
H       0.25       3.04      31.78
H       2.53       3.83      34.60
H       3.06      32.83       1.17
H      34.10      34.97       4.03
H      33.72       1.25      32.36
H      19.84       0.08      19.40
H      16.05      35.04      17.92
H      16.10       1.95      17.02
H      20.05       0.99      16.29
H      18.15       4.34      21.21
H      17.88      33.16      13.71
H      15.59      32.37      16.52
H      15.03       3.35      19.25
H      20.17       1.25      22.12
H      20.57      34.96      14.29
H       9.16      25.13      10.37
H       7.86      28.92       8.89
H      10.90      28.94       8.01
H      10.02      24.92       7.31
H      13.40      26.95      12.15
H       6.02      27.02       4.70
H       5.22      29.39       7.49
H      12.34      30.00      10.22
H      10.36      24.65      12.96
H       7.75      24.36       5.30
H       8.96      11.08      28.43
H      10.29       7.28      26.98
H       7.24       7.24      26.10
H       8.12      11.26      25.36
H       4.73       9.24      30.22
H      12.15       9.16      22.80
H      12.97       6.88      25.55
H       5.79       6.21      28.30
H       7.78      11.60      30.98
H      10.39      11.82      23.37
H      26.95      10.68      25.79
H      28.33       6.94      27.19
H      25.31       6.94      28.33
H      26.22      10.89      28.96
H      22.66       8.85      24.19
H      30.33       8.75      31.34
H      31.14       6.60      28.61
H      23.72       5.87      26.21
H      25.68      10.93      23.13
H      28.45      11.46      30.81
H      27.34      25.55       7.69
H      25.96      29.28       9.11
H      28.98      29.28      10.25
H      28.07      25.33      10.87
H      31.64      27.37       6.13
H      23.95      27.45      13.25
H      23.14      29.62      10.54
H      30.56      30.37       8.14
H      28.62      25.29       5.04
H      25.84      24.76      12.73
H      16.46      18.04      19.43
H      20.23      19.30      17.99
H      20.20      16.23      16.99
H      16.28      17.15      16.28
H      18.15      13.73      21.13
H      18.10      22.47      15.10
H      20.66      22.02      16.58
H      21.20      14.68      19.13
H      16.06      16.88      22.05
H      15.83      19.39      14.25
H       1.67      18.17       1.33
H      34.06      16.90      36.08
H      34.08      19.96      35.08
H       1.82      19.05      34.34
H      36.14      22.47       3.05
H       0.03      13.72      33.20
H      33.69      14.14      34.66
H      33.11      21.54       1.06
H       2.10      19.31       3.93
H       2.27      16.81      32.32
H      33.73      32.87       5.76
H      28.70      29.54       2.41
H      30.07      29.05       3.40
H      30.32      30.09       1.97
H      20.55       3.35      23.85
H      25.58       6.67      20.47
H      24.21       7.16      21.47
H      23.95       6.12      20.04
H      11.82      23.61      14.74
H      16.40      20.04      10.83
H      14.82      20.75      10.46
H      14.97      19.50      11.72
H       6.30      12.61      32.80
H       1.69      16.14      28.91
H       3.27      15.44      28.53
H       3.12      16.69      29.79
H      21.26      33.39      12.33
H      25.87      29.48      15.80
H      25.26      31.12      16.03
H      26.06      30.66      14.50
H      33.02       2.83      30.40
H      28.42       6.72      33.90
H      29.04       5.08      34.12
H      28.22       5.54      32.60
H       6.27      23.39       3.51
H       3.11      20.65       7.75
H       2.93      19.41       6.48
H       1.51      20.00       7.35
H      11.85      12.82      21.58
H      15.04      15.52      25.84
H      15.22      16.77      24.58
H      16.63      16.16      25.44
H       2.76       3.45      30.41
H       7.20       7.22      34.19
H       5.86       7.63      33.11
H       5.60       6.54      34.50
H      15.38      32.74      12.34
H      10.89      29.01      16.09
H      12.24      28.59      15.02
H      12.49      29.68      16.41
H      23.53      11.34      21.44
H      20.42      16.46      24.90
H      19.87      15.13      23.88
H      20.90      14.81      25.30
H      30.76      24.86       3.36
H      33.87      19.77       6.84
H      34.43      21.09       5.81
H      33.40      21.43       7.23
H      14.71       3.03      23.73
H      10.41       7.10      20.10
H      10.96       5.42      19.93
H      10.16       5.96      21.44
H       3.42      33.16       5.66
H       7.69      29.11       1.97
H       7.14      30.78       1.82
H       7.95      30.23       3.31
H      29.89      12.30      32.77
H      34.20      16.55      29.32
H      32.55      16.00      29.02
H      32.96      16.86      30.53
H      24.39      23.91      14.67
H      20.10      19.66      11.19
H      21.76      20.20      10.91
H      21.34      19.35      12.42
H      34.43      36.13      16.30
H       2.06       1.17      14.83
H       2.02      34.25      13.94
H      34.23      35.21      13.20
H      36.12      31.88      18.14
H       0.25       3.04      10.61
H       2.53       3.83      13.43
H       3.06      32.83      16.17
H      34.10      34.97      19.03
H      33.72       1.25      11.19
H      19.84       0.08      34.40
H      16.05      35.04      32.92
H      16.10       1.95      32.02
H      20.05       0.99      31.29
H      18.15       4.34       0.04
H      17.88      33.16      28.71
H      15.59      32.37      31.52
H      15.03       3.35      34.25
H      20.17       1.25       0.95
H      20.57      34.96      29.29
H       9.16      25.13      25.37
H       7.86      28.92      23.89
H      10.90      28.94      23.01
H      10.02      24.92      22.31
H      13.40      26.95      27.15
H       6.02      27.02      19.70
H       5.22      29.39      22.49
H      12.34      30.00      25.22
H      10.36      24.65      27.96
H       7.75      24.36      20.30
H       8.96      11.08       7.27
H      10.29       7.28       5.82
H       7.24       7.24       4.93
H       8.12      11.26       4.19
H       4.73       9.24       9.05
H      12.15       9.16       1.63
H      12.97       6.88       4.39
H       5.79       6.21       7.14
H       7.78      11.60       9.82
H      10.39      11.82       2.21
H      26.95      10.68       4.62
H      28.33       6.94       6.03
H      25.31       6.94       7.16
H      26.22      10.89       7.79
H      22.66       8.85       3.03
H      30.33       8.75      10.17
H      31.14       6.60       7.45
H      23.72       5.87       5.05
H      25.68      10.93       1.96
H      28.45      11.46       9.65
H      27.34      25.55      22.69
H      25.96      29.28      24.11
H      28.98      29.28      25.25
H      28.07      25.33      25.87
H      31.64      27.37      21.13
H      23.95      27.45      28.25
H      23.14      29.62      25.54
H      30.56      30.37      23.14
H      28.62      25.29      20.04
H      25.84      24.76      27.73
H      16.46      18.04      34.43
H      20.23      19.30      32.99
H      20.20      16.23      31.99
H      16.28      17.15      31.28
H      18.15      13.73      36.13
H      18.10      22.47      30.10
H      20.66      22.02      31.58
H      21.20      14.68      34.13
H      16.06      16.88       0.88
H      15.83      19.39      29.25
H       1.67      18.17      16.33
H      34.06      16.90      14.92
H      34.08      19.96      13.91
H       1.82      19.05      13.18
H      36.14      22.47      18.05
H       0.03      13.72      12.03
H      33.69      14.14      13.49
H      33.11      21.54      16.06
H       2.10      19.31      18.93
H       2.27      16.81      11.15
H      33.73      32.87      20.76
H      28.70      29.54      17.41
H      30.07      29.05      18.40
H      30.32      30.09      16.97
H      20.55       3.35       2.68
H      25.58       6.67      35.47
H      24.21       7.16       0.30
H      23.95       6.12      35.04
H      11.82      23.61      29.74
H      16.40      20.04      25.83
H      14.82      20.75      25.46
H      14.97      19.50      26.72
H       6.30      12.61      11.64
H       1.69      16.14       7.74
H       3.27      15.44       7.36
H       3.12      16.69       8.62
H      21.26      33.39      27.33
H      25.87      29.48      30.80
H      25.26      31.12      31.03
H      26.06      30.66      29.50
H      33.02       2.83       9.24
H      28.42       6.72      12.73
H      29.04       5.08      12.96
H      28.22       5.54      11.43
H       6.27      23.39      18.51
H       3.11      20.65      22.75
H       2.93      19.41      21.48
H       1.51      20.00      22.35
H      11.85      12.82       0.42
H      15.04      15.52       4.67
H      15.22      16.77       3.42
H      16.63      16.16       4.28
H       2.76       3.45       9.25
H       7.20       7.22      13.02
H       5.86       7.63      11.94
H       5.60       6.54      13.33
H      15.38      32.74      27.34
H      10.89      29.01      31.09
H      12.24      28.59      30.02
H      12.49      29.68      31.41
H      23.53      11.34       0.28
H      20.42      16.46       3.73
H      19.87      15.13       2.71
H      20.90      14.81       4.13
H      30.76      24.86      18.36
H      33.87      19.77      21.84
H      34.43      21.09      20.81
H      33.40      21.43      22.23
H      14.71       3.03       2.57
H      10.41       7.10      35.10
H      10.96       5.42      34.93
H      10.16       5.96       0.27
H       3.42      33.16      20.66
H       7.69      29.11      16.97
H       7.14      30.78      16.82
H       7.95      30.23      18.31
H      29.89      12.30      11.60
H      34.20      16.55       8.15
H      32.55      16.00       7.86
H      32.96      16.86       9.37
H      24.39      23.91      29.67
H      20.10      19.66      26.19
H      21.76      20.20      25.91
H      21.34      19.35      27.42
C       0.14      35.61       0.45
C      35.23      35.49       1.36
C      35.23      34.50       2.37
C       0.19      33.66       2.53
C       1.31      33.80       1.68
C       1.25      34.73       0.60
C       0.11       0.46      35.59
C      35.14       0.66      34.76
C      35.12       1.71      33.80
C       0.12       2.48      33.59
C       1.28       2.26      34.37
C       1.24       1.29      35.39
C       2.46       2.95      34.15
C       2.45      33.03       1.92
C      34.16      34.37       3.23
C      34.01       1.94      33.01
C      17.97       0.60      18.54
C      19.04       0.72      19.46
C      19.05       1.71      20.46
C      17.92       2.56      20.61
C      16.79       2.41      19.76
C      16.86       1.48      18.69
C      18.00      35.75      17.52
C      19.14      35.54      16.69
C      19.17      34.50      15.74
C      18.00      33.72      15.52
C      16.84      33.95      16.30
C      16.87      34.92      17.32
C      15.66      33.26      16.08
C      15.66       3.19      20.00
C      20.11       1.85      21.32
C      20.28      34.27      14.95
C       9.61      27.03       9.53
C       9.78      25.95      10.44
C      10.79      25.96      11.43
C      11.59      27.11      11.58
C      11.40      28.24      10.74
C      10.46      28.16       9.68
C       8.59      26.97       8.52
C       8.39      25.81       7.71
C       7.34      25.77       6.75
C       6.56      26.93       6.52
C       6.78      28.10       7.28
C       7.75      28.08       8.30
C       6.10      29.28       7.03
C      12.16      29.39      10.98
C      11.00      24.85      12.23
C       7.10      24.63       6.01
C       8.52       9.17      27.60
C       8.35      10.26      28.50
C       7.34      10.25      29.49
C       6.54       9.09      29.65
C       6.73       7.96      28.82
C       7.67       8.04      27.76
C       9.54       9.23      26.59
C       9.74      10.38      25.77
C      10.80      10.42      24.83
C      11.59       9.26      24.61
C      11.37       8.09      25.38
C      10.39       8.11      26.39
C      12.06       6.92      25.14
C       5.99       6.81      29.07
C       7.12      11.36      30.28
C      11.04      11.56      24.08
C      26.52       8.82      26.70
C      26.32       9.87      25.77
C      25.29       9.82      24.81
C      24.47       8.67      24.73
C      24.68       7.57      25.60
C      25.66       7.68      26.62
C      27.60       8.88      27.65
C      27.82      10.02      28.47
C      28.91      10.05      29.38
C      29.72       8.89      29.55
C      29.49       7.74      28.76
C      28.46       7.77      27.79
C      30.20       6.57      28.95
C      23.94       6.41      25.41
C      25.09      10.87      23.93
C      29.15      11.16      30.18
C      27.77      27.41       8.61
C      27.97      26.36       7.68
C      29.01      26.40       6.73
C      29.83      27.55       6.65
C      29.61      28.65       7.53
C      28.63      28.54       8.54
C      26.69      27.34       9.56
C      26.47      26.20      10.39
C      25.38      26.17      11.30
C      24.57      27.32      11.46
C      24.80      28.47      10.67
C      25.82      28.45       9.70
C      24.08      29.64      10.85
C      30.36      29.81       7.35
C      29.20      25.36       5.85
C      25.14      25.06      12.09
C      18.33      17.54      18.56
C      17.26      17.39      19.47
C      17.26      16.38      20.45
C      18.38      15.53      20.57
C      19.50      15.69      19.71
C      19.44      16.65      18.67
C      18.29      18.57      17.57
C      17.15      18.78      16.73
C      17.13      19.84      15.79
C      18.27      20.65      15.62
C      19.43      20.42      16.40
C      19.41      19.42      17.39
C      20.61      21.12      16.17
C      20.63      14.89      19.91
C      16.18      16.23      21.30
C      16.02      20.04      14.98
C      35.96      18.67       0.47
C       0.87      18.81       1.38
C       0.87      19.83       2.36
C      35.91      20.67       2.49
C      34.79      20.51       1.64
C      34.85      19.55       0.59
C      36.00      17.63      35.65
C       0.96      17.43      34.80
C       0.99      16.36      33.87
C      36.01      15.54      33.71
C      34.85      15.77      34.49
C      34.88      16.77      35.48
C      33.68      15.06      34.29
C      33.66      21.30       1.85
C       1.95      19.97       3.21
C       2.09      16.16      33.05
C      30.85      31.28       5.57
C      32.85      32.56       5.34
C      32.56      32.81       3.99
C      30.55      31.52       4.21
C      29.65      29.87       2.81
C      23.44       4.94      23.64
C      21.43       3.66      23.43
C      21.72       3.41      22.07
C      23.73       4.69      22.28
C      24.63       6.34      20.88
C      14.45      21.66      14.28
C      12.53      23.09      14.21
C      12.72      23.30      12.83
C      14.62      21.84      12.89
C      15.45      20.37      11.27
C       3.67      14.54      32.35
C       5.59      13.12      32.28
C       5.40      12.91      30.90
C       3.49      14.36      30.96
C       2.64      15.82      29.34
C      23.51      31.01      12.71
C      21.87      32.74      12.83
C      21.78      32.57      14.23
C      23.45      30.86      14.11
C      25.39      30.32      15.30
C      30.77       5.20      30.79
C      32.41       3.47      30.90
C      32.51       3.64      32.30
C      30.83       5.34      32.20
C      28.89       5.88      33.39
C       3.58      21.53       3.94
C       5.54      22.90       4.03
C       5.34      23.13       5.40
C       3.39      21.73       5.33
C       2.47      20.29       6.93
C      14.55      14.67      22.02
C      12.59      13.31      22.11
C      12.80      13.07      23.48
C      14.75      14.46      23.41
C      15.67      15.88      25.02
C       5.40       5.38      30.86
C       3.54       3.89      30.92
C       3.75       3.66      32.29
C       5.62       5.14      32.24
C       6.30       6.83      33.71
C      12.73      30.82      12.77
C      14.60      32.31      12.84
C      14.38      32.54      14.21
C      12.50      31.07      14.14
C      11.80      29.39      15.62
C      22.04      14.28      21.70
C      23.25      12.22      21.88
C      23.53      12.49      23.24
C      22.32      14.55      23.06
C      20.71      15.50      24.47
C      32.25      21.93       3.63
C      31.04      23.98       3.80
C      30.76      23.72       5.16
C      31.97      21.67       4.99
C      33.59      20.73       6.41
C      12.68       5.59      23.27
C      14.18       3.73      23.21
C      14.30       3.85      21.81
C      12.75       5.68      21.86
C      10.85       6.25      20.64
C       5.44      30.61       5.16
C       3.94      32.46       5.13
C       3.82      32.35       3.73
C       5.36      30.52       3.75
C       7.26      29.95       2.52
C      32.37      14.44      32.41
C      30.59      12.85      32.28
C      30.85      12.66      30.90
C      32.61      14.28      31.03
C      33.31      16.14      29.79
C      21.91      21.77      14.30
C      23.69      23.36      14.18
C      23.45      23.54      12.80
C      21.69      21.92      12.91
C      20.99      20.07      11.67
C       0.14      35.61      15.45
C      35.23      35.49      16.36
C      35.23      34.50      17.37
C       0.19      33.66      17.53
C       1.31      33.80      16.68
C       1.25      34.73      15.60
C       0.11       0.46      14.43
C      35.14       0.66      13.60
C      35.12       1.71      12.64
C       0.12       2.48      12.43
C       1.28       2.26      13.21
C       1.24       1.29      14.23
C       2.46       2.95      12.99
C       2.45      33.03      16.92
C      34.16      34.37      18.23
C      34.01       1.94      11.85
C      17.97       0.60      33.54
C      19.04       0.72      34.46
C      19.05       1.71      35.46
C      17.92       2.56      35.61
C      16.79       2.41      34.76
C      16.86       1.48      33.69
C      18.00      35.75      32.52
C      19.14      35.54      31.69
C      19.17      34.50      30.74
C      18.00      33.72      30.52
C      16.84      33.95      31.30
C      16.87      34.92      32.32
C      15.66      33.26      31.08
C      15.66       3.19      35.00
C      20.11       1.85       0.16
C      20.28      34.27      29.95
C       9.61      27.03      24.53
C       9.78      25.95      25.44
C      10.79      25.96      26.43
C      11.59      27.11      26.58
C      11.40      28.24      25.74
C      10.46      28.16      24.68
C       8.59      26.97      23.52
C       8.39      25.81      22.71
C       7.34      25.77      21.75
C       6.56      26.93      21.52
C       6.78      28.10      22.28
C       7.75      28.08      23.30
C       6.10      29.28      22.03
C      12.16      29.39      25.98
C      11.00      24.85      27.23
C       7.10      24.63      21.01
C       8.52       9.17       6.44
C       8.35      10.26       7.34
C       7.34      10.25       8.32
C       6.54       9.09       8.48
C       6.73       7.96       7.66
C       7.67       8.04       6.59
C       9.54       9.23       5.43
C       9.74      10.38       4.61
C      10.80      10.42       3.66
C      11.59       9.26       3.44
C      11.37       8.09       4.21
C      10.39       8.11       5.23
C      12.06       6.92       3.97
C       5.99       6.81       7.90
C       7.12      11.36       9.12
C      11.04      11.56       2.91
C      26.52       8.82       5.53
C      26.32       9.87       4.61
C      25.29       9.82       3.65
C      24.47       8.67       3.56
C      24.68       7.57       4.44
C      25.66       7.68       5.46
C      27.60       8.88       6.48
C      27.82      10.02       7.31
C      28.91      10.05       8.22
C      29.72       8.89       8.38
C      29.49       7.74       7.59
C      28.46       7.77       6.62
C      30.20       6.57       7.78
C      23.94       6.41       4.24
C      25.09      10.87       2.77
C      29.15      11.16       9.01
C      27.77      27.41      23.61
C      27.97      26.36      22.68
C      29.01      26.40      21.73
C      29.83      27.55      21.65
C      29.61      28.65      22.53
C      28.63      28.54      23.54
C      26.69      27.34      24.56
C      26.47      26.20      25.39
C      25.38      26.17      26.30
C      24.57      27.32      26.46
C      24.80      28.47      25.67
C      25.82      28.45      24.70
C      24.08      29.64      25.85
C      30.36      29.81      22.35
C      29.20      25.36      20.85
C      25.14      25.06      27.09
C      18.33      17.54      33.56
C      17.26      17.39      34.47
C      17.26      16.38      35.45
C      18.38      15.53      35.57
C      19.50      15.69      34.71
C      19.44      16.65      33.67
C      18.29      18.57      32.57
C      17.15      18.78      31.73
C      17.13      19.84      30.79
C      18.27      20.65      30.62
C      19.43      20.42      31.40
C      19.41      19.42      32.39
C      20.61      21.12      31.17
C      20.63      14.89      34.91
C      16.18      16.23       0.13
C      16.02      20.04      29.98
C      35.96      18.67      15.47
C       0.87      18.81      16.38
C       0.87      19.83      17.36
C      35.91      20.67      17.49
C      34.79      20.51      16.64
C      34.85      19.55      15.59
C      36.00      17.63      14.48
C       0.96      17.43      13.64
C       0.99      16.36      12.70
C      36.01      15.54      12.54
C      34.85      15.77      13.33
C      34.88      16.77      14.32
C      33.68      15.06      13.12
C      33.66      21.30      16.85
C       1.95      19.97      18.21
C       2.09      16.16      11.88
C      30.85      31.28      20.57
C      32.85      32.56      20.34
C      32.56      32.81      18.99
C      30.55      31.52      19.21
C      29.65      29.87      17.81
C      23.44       4.94       2.47
C      21.43       3.66       2.26
C      21.72       3.41       0.90
C      23.73       4.69       1.11
C      24.63       6.34      35.88
C      14.45      21.66      29.28
C      12.53      23.09      29.21
C      12.72      23.30      27.83
C      14.62      21.84      27.89
C      15.45      20.37      26.27
C       3.67      14.54      11.18
C       5.59      13.12      11.11
C       5.40      12.91       9.73
C       3.49      14.36       9.79
C       2.64      15.82       8.17
C      23.51      31.01      27.71
C      21.87      32.74      27.83
C      21.78      32.57      29.23
C      23.45      30.86      29.11
C      25.39      30.32      30.30
C      30.77       5.20       9.63
C      32.41       3.47       9.74
C      32.51       3.64      11.14
C      30.83       5.34      11.03
C      28.89       5.88      12.22
C       3.58      21.53      18.94
C       5.54      22.90      19.03
C       5.34      23.13      20.40
C       3.39      21.73      20.33
C       2.47      20.29      21.93
C      14.55      14.67       0.86
C      12.59      13.31       0.94
C      12.80      13.07       2.31
C      14.75      14.46       2.24
C      15.67      15.88       3.86
C       5.40       5.38       9.70
C       3.54       3.89       9.75
C       3.75       3.66      11.12
C       5.62       5.14      11.07
C       6.30       6.83      12.55
C      12.73      30.82      27.77
C      14.60      32.31      27.84
C      14.38      32.54      29.21
C      12.50      31.07      29.14
C      11.80      29.39      30.62
C      22.04      14.28       0.53
C      23.25      12.22       0.71
C      23.53      12.49       2.07
C      22.32      14.55       1.89
C      20.71      15.50       3.31
C      32.25      21.93      18.63
C      31.04      23.98      18.80
C      30.76      23.72      20.16
C      31.97      21.67      19.99
C      33.59      20.73      21.41
C      12.68       5.59       2.10
C      14.18       3.73       2.05
C      14.30       3.85       0.65
C      12.75       5.68       0.70
C      10.85       6.25      35.64
C       5.44      30.61      20.16
C       3.94      32.46      20.13
C       3.82      32.35      18.73
C       5.36      30.52      18.75
C       7.26      29.95      17.52
C      32.37      14.44      11.25
C      30.59      12.85      11.11
C      30.85      12.66       9.74
C      32.61      14.28       9.87
C      33.31      16.14       8.63
C      21.91      21.77      29.30
C      23.69      23.36      29.18
C      23.45      23.54      27.80
C      21.69      21.92      27.91
C      20.99      20.07      26.67
N      32.00      31.80       6.07
N      31.43      32.26       3.47
N      30.07      30.46       6.26
N      33.45      33.30       3.15
N      22.29       4.43      24.15
N      22.85       3.95      21.55
N      24.22       5.76      24.33
N      20.82       2.91      21.24
N      13.43      22.33      14.89
N      13.78      22.69      12.24
N      15.40      21.16      15.05
N      12.12      24.24      12.13
N       4.69      13.88      32.95
N       4.33      13.51      30.31
N       2.72      15.04      33.13
N       5.99      11.95      30.20
N      22.72      31.94      12.12
N      22.55      31.61      14.80
N      24.29      30.21      12.00
N      20.83      33.10      14.97
N      31.56       4.27      30.20
N      31.73       4.59      32.88
N      29.98       6.00      30.09
N      33.46       3.10      33.04
N       4.63      22.15       3.35
N       4.25      22.56       5.98
N       2.63      21.06       3.15
N       5.94      24.08       6.09
N      13.49      14.06      21.43
N      13.89      13.63      24.06
N      15.49      15.15      21.23
N      12.20      12.11      24.17
N       4.36       4.75      30.26
N       4.79       4.29      32.89
N       6.16       6.26      30.22
N       2.93       2.85      32.95
N      13.78      31.45      12.18
N      13.33      31.92      14.80
N      11.97      29.95      12.13
N      15.19      33.35      14.87
N      22.51      13.12      21.17
N      23.03      13.64      23.77
N      21.26      15.10      21.02
N      24.03      11.58      24.05
N      31.78      23.09       3.10
N      31.26      22.59       5.70
N      33.04      21.10       2.96
N      30.26      24.64       5.97
N      13.40       4.61      23.89
N      13.58       4.83      21.20
N      11.93       6.44      23.94
N      15.13       3.05      21.17
N       4.74      31.58       5.79
N       4.53      31.38       3.10
N       6.20      29.75       5.82
N       2.98      33.15       3.10
N      31.37      13.71      32.98
N      31.87      13.37      30.35
N      33.15      15.24      33.12
N      30.31      11.70      30.17
N      22.91      22.49      14.88
N      22.43      22.84      12.24
N      21.13      20.96      15.00
N      23.98      24.51      12.07
N      32.00      31.80      21.07
N      31.43      32.26      18.47
N      30.07      30.46      21.26
N      33.45      33.30      18.15
N      22.29       4.43       2.98
N      22.85       3.95       0.38
N      24.22       5.76       3.16
N      20.82       2.91       0.07
N      13.43      22.33      29.89
N      13.78      22.69      27.24
N      15.40      21.16      30.05
N      12.12      24.24      27.13
N       4.69      13.88      11.79
N       4.33      13.51       9.15
N       2.72      15.04      11.96
N       5.99      11.95       9.03
N      22.72      31.94      27.12
N      22.55      31.61      29.80
N      24.29      30.21      27.00
N      20.83      33.10      29.97
N      31.56       4.27       9.04
N      31.73       4.59      11.72
N      29.98       6.00       8.92
N      33.46       3.10      11.88
N       4.63      22.15      18.35
N       4.25      22.56      20.98
N       2.63      21.06      18.15
N       5.94      24.08      21.09
N      13.49      14.06       0.26
N      13.89      13.63       2.89
N      15.49      15.15       0.06
N      12.20      12.11       3.00
N       4.36       4.75       9.09
N       4.79       4.29      11.73
N       6.16       6.26       9.06
N       2.93       2.85      11.78
N      13.78      31.45      27.18
N      13.33      31.92      29.80
N      11.97      29.95      27.13
N      15.19      33.35      29.87
N      22.51      13.12       0.00
N      23.03      13.64       2.61
N      21.26      15.10      36.02
N      24.03      11.58       2.89
N      31.78      23.09      18.10
N      31.26      22.59      20.70
N      33.04      21.10      17.96
N      30.26      24.64      20.97
N      13.40       4.61       2.72
N      13.58       4.83       0.03
N      11.93       6.44       2.78
N      15.13       3.05       0.01
N       4.74      31.58      20.79
N       4.53      31.38      18.10
N       6.20      29.75      20.82
N       2.98      33.15      18.10
N      31.37      13.71      11.82
N      31.87      13.37       9.18
N      33.15      15.24      11.95
N      30.31      11.70       9.00
N      22.91      22.49      29.88
N      22.43      22.84      27.24
N      21.13      20.96      30.00
N      23.98      24.51      27.07
O       0.20      32.74       3.54
O       0.14       3.48      32.65
O       2.29      34.78      35.89
O      34.04      36.03      34.88
O      17.91       3.48      21.62
O      17.99      32.72      14.58
O      15.82       1.43      17.80
O      20.24       0.18      16.81
O      12.53      27.14      12.58
O       5.57      26.93       5.57
O      10.38      29.20       8.80
O       9.21      24.72       7.83
O       5.60       9.07      30.65
O      12.58       9.27      23.67
O       7.76       6.99      26.89
O       8.92      11.46      25.88
O      23.51       8.60      23.76
O      30.74       8.87      30.46
O      25.79       6.66      27.52
O      27.00      11.10      28.39
O      30.80      27.62       5.69
O      23.54      27.34      12.36
O      28.50      29.56       9.44
O      27.30      25.12      10.31
O      18.40      14.58      21.56
O      18.29      21.61      14.65
O      20.48      16.73      17.79
O      16.07      17.95      16.82
O      35.89      21.62       3.48
O      35.99      14.57      32.74
O      33.80      19.46      35.88
O       2.04      18.26      34.88
O      29.42      31.03       3.62
O      24.86       5.18      21.68
O      15.74      21.39      12.24
O       2.37      14.80      30.31
O      24.13      29.88      14.77
O      30.15       6.33      32.85
O       2.25      21.32       5.96
O      15.89      14.86      24.04
O       6.68       5.70      32.90
O      11.44      30.51      14.80
O      21.88      15.69      23.67
O      32.41      20.53       5.61
O      12.12       6.67      21.17
O       5.99      29.54       3.05
O      33.66      14.89      30.40
O      20.64      21.32      12.28
O       0.20      32.74      18.54
O       0.14       3.48      11.49
O       2.29      34.78      14.72
O      34.04      36.03      13.71
O      17.91       3.48       0.45
O      17.99      32.72      29.58
O      15.82       1.43      32.80
O      20.24       0.18      31.81
O      12.53      27.14      27.58
O       5.57      26.93      20.57
O      10.38      29.20      23.80
O       9.21      24.72      22.83
O       5.60       9.07       9.48
O      12.58       9.27       2.50
O       7.76       6.99       5.73
O       8.92      11.46       4.72
O      23.51       8.60       2.59
O      30.74       8.87       9.29
O      25.79       6.66       6.35
O      27.00      11.10       7.23
O      30.80      27.62      20.69
O      23.54      27.34      27.36
O      28.50      29.56      24.44
O      27.30      25.12      25.31
O      18.40      14.58       0.39
O      18.29      21.61      29.65
O      20.48      16.73      32.79
O      16.07      17.95      31.82
O      35.89      21.62      18.48
O      35.99      14.57      11.58
O      33.80      19.46      14.72
O       2.04      18.26      13.72
O      29.42      31.03      18.62
O      24.86       5.18       0.52
O      15.74      21.39      27.24
O       2.37      14.80       9.15
O      24.13      29.88      29.77
O      30.15       6.33      11.69
O       2.25      21.32      20.96
O      15.89      14.86       2.87
O       6.68       5.70      11.74
O      11.44      30.51      29.80
O      21.88      15.69       2.50
O      32.41      20.53      20.61
O      12.12       6.67       0.00
O       5.99      29.54      18.05
O      33.66      14.89       9.24
O      20.64      21.32      27.28
