248

C      14.05       6.53      37.13
C      15.20       7.05      37.79
C      16.19       6.21      38.33
C      15.97       4.81      38.29
C      14.77       4.25      37.79
C      13.83       5.11      37.13
C      13.08       7.45      36.64
C      12.16       8.11      37.51
C      11.14       8.95      36.95
C      11.13       9.16      35.55
C      12.02       8.50      34.66
C      12.98       7.63      35.23
C      11.93       8.75      33.28
C      14.48       2.88      38.06
C      17.38       6.71      38.92
C      10.09       9.49      37.74
C      -2.49      14.96      17.18
C      -3.63      14.43      17.84
C      -4.63      15.27      18.39
C      -4.42      16.67      18.34
C      -3.22      17.24      17.84
C      -2.28      16.38      17.18
C      -1.52      14.05      16.69
C      -0.60      13.37      17.56
C       0.42      12.54      16.99
C       0.44      12.35      15.58
C      -0.44      13.02      14.70
C      -1.40      13.88      15.28
C      -0.34      12.80      13.32
C      -2.94      18.60      18.11
C      -5.82      14.76      18.98
C       1.47      12.00      17.78
C       1.40      15.06       1.92
C       2.58      14.54       1.32
C       3.48      15.36       0.60
C       3.19      16.75       0.53
C       2.02      17.32       1.09
C       1.11      16.46       1.80
C       0.47      14.13       2.49
C      -0.33      13.27       1.66
C      -1.40      12.52       2.25
C      -1.68      12.70       3.63
C      -0.87      13.50       4.48
C       0.20      14.20       3.88
C      -1.22      13.61       5.83
C       1.75      18.69       0.80
C       4.60      14.58      39.79
C      -2.19      11.59       1.52
C      10.16       6.71      21.88
C       8.98       7.23      21.27
C       8.08       6.41      20.55
C       8.37       5.03      20.48
C       9.53       4.45      21.04
C      10.44       5.30      21.75
C      11.09       7.63      22.44
C      11.89       8.49      21.62
C      12.97       9.23      22.21
C      13.25       9.04      23.59
C      12.44       8.25      24.43
C      11.37       7.55      23.83
C      12.79       8.13      25.79
C       9.79       3.08      20.75
C       6.96       6.91      19.84
C      13.75      10.17      21.49
C      12.18       8.00      31.00
C      13.23       7.45      30.23
C      13.20       7.49      28.81
C      12.08       8.03      28.11
C      11.01       8.54      28.89
C      11.06       8.53      30.31
C      -0.60      13.58      11.05
C      -1.65      14.16      10.29
C      -1.62      14.16       8.87
C      -0.51      13.63       8.16
C       0.55      13.09       8.92
C       0.51      13.06      10.34
C      15.20       0.66      38.97
C      13.98      -0.05      39.11
C       1.39      21.31      39.55
C       2.59      20.60      39.81
C       3.81      21.29      39.64
C      16.40      -0.05      39.26
C       8.22      11.13      38.00
C       7.79      12.35      37.43
C       6.76      13.13      38.04
C       6.08      12.66      39.19
C       6.47      11.40      39.72
C       7.55      10.67      39.16
C      18.59       8.95       0.02
C      19.95       8.30      39.77
C      -4.13       9.39       0.40
C      -4.43      10.53       1.20
C      -5.79      10.84       1.42
C      18.29      10.10       0.79
C      -3.66      20.83      19.02
C      -2.44      21.53      19.15
C      10.15       0.18      19.59
C       8.95       0.89      19.86
C       7.73       0.19      19.69
C      -4.86      21.53      19.32
C       3.35      10.36      18.04
C       3.78       9.14      17.47
C       4.81       8.37      18.07
C       5.49       8.84      19.23
C       5.09      10.09      19.76
C       4.02      10.82      19.20
C      -7.02      12.81      19.98
C      16.73      13.17      19.83
C      15.70      12.36      20.37
C      16.00      11.23      21.16
C      17.36      10.91      21.38
C      18.39      11.66      20.75
H      15.33       8.07      37.81
H      16.65       4.20      38.75
H      10.40       9.76      35.14
H      13.63       7.14      34.61
H      12.07       5.18      36.06
H      12.62       3.67      36.30
H      11.82       8.49      39.51
H      12.94       7.34      39.26
H      11.57       9.63      33.00
H      13.54       2.55      37.88
H      18.12       6.04      39.15
H       9.97       9.14      38.68
H      -3.77      13.42      17.87
H      -5.10      17.28      18.80
H       1.18      11.76      15.18
H      -2.06      14.38      14.67
H      -0.51      16.32      16.12
H      -1.08      17.83      16.34
H      -0.27      12.96      19.55
H      -1.38      14.12      19.32
H       0.03      11.92      13.02
H      -2.00      18.93      17.92
H      -6.56      15.43      19.21
H       1.59      12.34      18.72
H       2.76      13.54       1.36
H       3.82      17.05      39.89
H      -2.45      12.17       4.05
H       0.75      14.84       4.47
H      -0.72      16.39       2.75
H      -0.24      17.90       2.41
H      -0.80      12.57      39.60
H       0.48      13.56      39.76
H      -2.19      13.57       6.05
H       0.83      19.06       1.00
H       5.14      15.25      39.24
H      -1.80      11.20       0.66
H       8.80       8.24      21.31
H       7.73       4.43      19.93
H      14.02       9.57      24.01
H      10.81       6.91      24.42
H      12.28       5.37      22.69
H      11.78       3.86      22.36
H      12.36       8.91      19.66
H      11.08       7.92      19.81
H      13.75       8.21      26.02
H      10.71       2.71      20.95
H       6.42       6.24      19.28
H      13.37      10.57      20.63
H      14.98       7.52      28.17
H      10.06       9.96      28.10
H      14.12       5.95      30.96
H       9.97       9.93      30.96
H      -3.40      14.15       8.23
H       1.49      11.67       8.10
H      -2.52      15.65      11.06
H       1.59      11.63      10.96
H       0.01      20.26      38.79
H       5.20      21.05       0.91
H      12.46       0.30      38.03
H      17.80       1.28       0.07
H       7.05      14.95      37.61
H       6.28      11.54       1.69
H       9.15      13.36      36.58
H       8.34       9.92       0.62
H      -2.57       8.49       0.95
H      -6.18      11.65       3.08
H      20.59       6.53      39.56
H      16.68      10.03       1.77
H      11.52       1.23      18.82
H       6.35       0.72      20.87
H      -0.93      21.18      18.07
H      -6.26      20.49      20.04
H       4.53       6.55      17.64
H       5.27      10.24      21.64
H       2.43       8.14      16.61
H       3.22      11.86      20.57
H      14.14      13.27      20.92
H      17.76      10.10      23.03
H      16.09      14.94      19.63
H      -5.11      11.73      21.72
N      12.72       4.61      36.50
N      12.28       7.94      38.87
N      -1.17      16.88      16.55
N      -0.73      13.53      18.92
N      -0.05      16.96       2.34
N      -0.16      13.28       0.30
N      11.60       4.80      22.29
N      11.73       8.49      20.26
N      12.25       7.91      32.35
N      11.95       8.06      26.76
N      -0.67      13.65      12.40
N      -0.38      13.61       6.81
N      15.34       1.96      38.57
N       2.66      19.59       0.33
N       9.27      10.52      37.39
N       5.08      13.31      39.85
N      17.53       7.97      39.40
N      -3.51      11.37       1.75
N      -3.80      19.53      18.62
N       8.88       2.18      20.28
N       2.29      10.98      17.42
N       6.48       8.18      19.89
N      -5.96      13.50      19.46
N      15.08      10.39      21.71
O      14.22       6.90      28.12
O      14.32       6.91      30.85
O       9.89       9.01      28.28
O       9.97       8.95      31.00
O      -2.64      14.77       8.20
O      -2.73      14.70      10.93
O       1.67      12.62       8.30
O       1.60      12.62      11.03
O       0.17      20.71      39.65
O      12.78       0.57      38.93
O       5.00      20.65      39.86
O      17.61       0.56      39.12
O       6.37      14.26      37.40
O       8.38      12.82      36.30
O       5.82      11.18       0.90
O       7.82       9.45      39.71
O      -2.85       9.01       0.16
O      20.30       7.26      38.96
O      -6.13      11.94       2.15
O      17.00      10.49       0.97
O      11.37       0.78      19.68
O      -1.24      20.92      18.97
O       6.54       0.83      19.92
O      -6.07      20.91      19.18
O       5.20       7.24      17.43
O       3.20       8.68      16.33
O       5.74      10.60      20.85
O       3.74      12.04      19.75
O      14.42      12.75      20.14
O      16.38      14.22      19.03
O      17.71       9.81      22.10
O      -5.43      11.26      20.92
