20

Co       0.80       5.97      14.18
Co      -0.80       8.36      16.72
C      -1.74       4.63      15.05
C      -0.78       9.03      19.24
C       1.74       9.70      15.85
C      -2.33      10.94      16.66
C       2.98       4.67      15.85
C       2.33       3.39      14.25
C       2.40       8.42      14.25
C      -2.98       9.67      15.05
C       0.78       5.31      11.67
C      -2.40       5.91      16.66
N      -0.98       5.75      15.00
N       2.08       4.60      14.83
N       1.42       7.76      14.86
N       0.98       8.58      15.91
N      -2.08       9.73      16.08
N      -1.42       6.57      16.05
O      -1.21       7.97      18.61
O       1.21       6.36      12.30
