16

I       4.43       9.85      19.91
I       7.32      13.64      19.91
C       3.21      12.84      18.01
Cu       5.89      11.76      18.60
N       4.51      12.88      17.63
N       7.24      10.54      17.70
Cu       5.89      11.76      21.22
N       7.24      10.54      22.11
N       4.51      12.88      22.18
C       6.83       9.57      22.96
C       3.21      12.84      21.81
C       8.57      10.63      21.84
C       4.86      13.77      23.13
C       6.83       9.57      16.86
C       8.57      10.63      17.97
C       4.86      13.77      16.68
