20

Gd       4.88       6.04      13.62
Gd       8.63       5.60      12.93
O       6.01       7.50      15.04
O       8.19       6.98      14.71
O       6.60       4.66      14.41
O       8.70       4.00      14.69
O       3.65       4.11      14.20
O      10.56       4.43      12.47
O       7.50       4.13      11.50
O       5.32       4.66      11.83
O       6.91       6.98      12.13
O       4.81       7.64      11.85
O       9.85       7.53      12.34
O       2.95       7.21      14.07
C       7.26       7.65      15.27
C       7.47       3.93      15.02
C       2.83       3.66      13.33
C       6.25       3.99      11.27
C       6.04       7.71      11.53
C       2.37       7.98      13.21
