32

C      13.78       4.95      17.04
C      14.19       4.72      18.37
C      13.78       3.55      19.04
C      12.98       2.61      18.38
C      12.58       2.84      17.05
C      12.98       4.01      16.39
C      11.70       1.87      16.34
N      13.82       2.39      21.00
H      13.24       0.38      22.50
H      15.38       4.12      22.49
N      14.23       3.43      20.39
H      15.40       1.63      26.01
H      14.81       5.45      18.89
H      12.66       1.71      18.89
H      12.65       4.19      15.37
O      14.36      -0.54      26.25
O      13.12      -1.18      24.45
O      16.70       3.66      26.25
O      16.69       5.00      24.41
O      13.69       6.37      15.14
O      14.92       7.01      16.94
O      11.35       2.16      15.13
O      11.36       0.83      16.98
C      13.89      -0.37      25.07
C      14.27       0.88      24.34
C      13.86       1.11      23.02
C      14.27       2.27      22.35
C      15.07       3.22      23.01
C      15.47       2.98      24.33
C      15.07       1.82      25.00
C      16.34       3.96      25.05
C      14.16       6.20      16.32
