46

La      13.31       6.54      28.40
O      13.98       5.73      30.75
La      11.80       1.90      28.32
O      14.08       7.95      30.71
O      11.87       5.73      26.59
La      13.40      10.25      30.11
O      10.85       3.77      27.05
La      14.92      14.88      30.19
O      11.20       6.92      29.59
O      11.28       9.03      30.38
C      14.31       6.82      31.30
O      12.08       4.30      29.58
O      12.76      14.04      30.79
O      11.90      11.97      30.79
C      11.08       4.77      26.29
O      13.07      -0.18      27.92
O      16.79      14.62      28.72
O      16.57      16.26      31.30
O      12.79       1.51      30.52
C      10.66       8.05      29.88
O      12.74      11.06      27.75
O      12.63       8.84      27.79
C      13.06      -1.31      28.49
C      11.82      13.22      30.57
O      14.85      11.05      31.91
O      15.87      13.01      31.46
H      11.24       4.77      29.76
H      12.59       4.38      30.41
O      15.43       7.75      28.12
O      15.51       9.87      28.91
O      14.64      12.48      28.92
C      12.56       0.65      31.43
C      12.41       9.96      27.20
H      15.48      12.02      28.75
H      14.13      12.41      28.09
C      15.64      12.01      32.21
C      14.90       3.56      27.94
C       8.86       1.49      30.01
C      16.06       8.74      28.63
O      13.92      15.28      27.98
O      13.95       2.74      27.71
O      14.82       4.82      27.72
O       9.93       2.16      29.78
O      13.64      16.96      30.58
O      10.14       0.53      27.20
C       9.36      -0.47      27.07
