22

Zn       1.79      -0.09       3.83
Zn       4.86       3.65       3.83
H       0.80       1.17       7.39
H       2.51       6.13       0.28
C       0.56       2.22       7.52
C       3.11       2.89       1.13
C       2.80       4.26       1.28
C       2.49       4.92       2.59
C       3.11       1.90       2.26
C       2.76       5.08       0.15
C       0.21       4.41       6.54
C       0.52       3.04       6.38
C       0.82       2.38       5.07
C       0.21       5.40       5.41
O       2.24       0.97       2.16
O       3.96       1.97       3.20
O       1.58       5.81       2.56
O       3.14       4.64       3.66
O       1.07       6.33       5.51
O      -0.64       5.33       4.47
O       1.73       1.49       5.11
O       0.18       2.66       4.01
