22

Nd       7.07       9.55      19.54
Nd       7.06       5.42      19.84
O       7.37       6.20      22.11
O       6.93       8.32      21.51
C       7.24       7.27      16.97
O       5.04       6.55      20.03
O       4.81       8.73      19.44
O       9.07       6.59      19.64
O       9.34       8.83      19.71
O       7.71      11.73      18.71
O       7.50      11.47      20.92
O       6.22       3.37      18.89
O       6.78       3.37      21.05
O       6.91       6.22      17.62
O       7.31       8.43      17.50
C       7.15       7.42      22.40
C       4.33       7.59      19.74
C       9.80       7.64      19.70
C       7.96      12.12      19.91
C       8.85      13.29      20.14
C       5.43       1.55      20.24
C       6.20       2.81      20.05
