18

Al       1.65       4.10       4.86
Al       4.99       4.11       5.10
C       3.27       5.72       6.79
C       3.38       5.74       3.19
C      -0.07       2.47       3.18
C       0.03       2.46       6.76
O       3.32       3.30       4.96
O      -0.01       4.91       4.96
O       4.45       5.31       6.51
O       2.19       5.38       6.21
O       4.45       5.44       3.82
O       5.54       2.78       3.81
O       1.10       2.78       6.15
O       1.10       2.91       3.43
H       3.33       2.34       4.93
O       2.21       5.32       3.46
H      -0.01       5.87       4.99
O       5.53       2.90       6.51
