24

H      15.82       9.78      15.99
H      15.07      13.87      17.22
H      15.04      13.02      19.56
H      14.48      14.21      15.23
H      13.00      15.87      10.99
H      13.24      15.36      13.43
H      16.29      12.49      12.35
H      15.93      13.13       9.99
C      15.34      12.28      14.97
C      15.62      10.18      18.08
C      15.63      10.55      16.74
C      15.40      11.89      16.37
C      15.20      12.80      17.43
C      15.20      12.35      18.73
C      14.86      13.47      14.52
C      13.70      15.11      11.34
C      13.85      14.82      12.69
C      14.76      13.83      13.12
C      15.53      13.22      12.10
C      15.34      13.57      10.78
N      15.39      11.06      19.08
N      14.43      14.49      10.38
H      15.64      11.53      14.25
H      15.83       9.15      18.38
