25

H       6.54       7.88       4.45
H       4.50      11.64       4.29
H       2.22       8.03       4.69
H       6.21       3.56       5.59
H       6.34       6.03       5.53
C       4.38       7.75       4.60
C       5.60       8.42       4.47
C       5.64       9.82       4.36
C       4.46      10.56       4.36
C       3.23       9.90       4.47
C       3.19       8.51       4.59
C       5.37       4.15       5.24
C       5.43       5.53       5.19
C       4.34       6.28       4.72
C       3.20       5.54       4.35
C       3.21       4.15       4.41
C       6.96      10.50       4.27
C       1.95      10.69       4.46
N       4.29       3.45       4.83
H       2.30       6.03       3.98
H       2.35       3.56       4.11
O       8.03       9.80       4.19
O       7.04      11.77       4.33
O       0.86      10.04       4.25
O       1.96      11.94       4.66
