25

C      10.30       1.82       7.57
C      10.36       0.44       7.62
C       9.26      -0.30       8.09
C       8.12       0.43       8.46
C       8.14       1.82       8.39
O      12.96      -3.84       8.58
O      11.95      -5.81       8.45
O       5.80      -4.07       8.60
O       6.88      -5.96       8.12
C      11.89      -4.54       8.50
C       6.88      -4.71       8.36
H      11.47      -1.91       8.36
H       9.43      -5.67       8.52
H       7.15      -2.06       8.12
H      11.14       2.42       7.21
H      11.27      -0.05       7.28
H       7.23      -0.06       8.83
H       7.27       2.41       8.69
N       9.21       2.53       7.97
C       9.30      -1.78       8.21
C      10.53      -2.45       8.33
C      10.57      -3.85       8.44
C       9.39      -4.59       8.44
C       8.16      -3.93       8.35
C       8.12      -2.54       8.23
