17

C       1.55       1.11       3.78
C       1.25      -0.27       3.88
C       2.24      -1.25       3.83
C      -0.61       0.93       4.07
H       2.00      -2.30       3.95
H      -0.75      -1.16       4.04
H       3.10       2.58       3.46
H      -1.65       1.16       4.21
O       5.88      -1.48       3.64
O       4.35      -3.09       3.71
H       4.89       0.83       3.32
N       0.36       1.83       3.91
N      -0.13      -0.34       4.06
C       4.65      -1.83       3.66
C       3.56      -0.82       3.65
C       3.86       0.55       3.50
C       2.87       1.53       3.57
