120

Zn       4.61       7.21      17.45
Zn       9.55      14.49       9.60
Zn       5.41      12.36       0.56
Zn       0.46       5.09       8.42
Zn       5.01      15.33       0.03
Zn       0.06       2.13       9.00
Zn       4.95       7.68       0.03
Zn       0.09       9.79       9.00
H       1.97       3.89      16.44
H       9.84      17.82      16.28
H       6.51      16.20       3.80
H       7.67       1.41       5.95
H       6.78       4.96       2.58
H       8.01       5.51       4.72
H       2.80      10.64      16.46
H       6.92      17.81      10.59
H       4.83       3.91      10.74
H       1.54       1.25       5.23
H       2.75      16.03       3.07
H       1.87      12.49       6.45
H       3.08      11.93       4.31
H       7.78      11.01      10.57
H       8.05      15.70       1.60
H       0.18       1.77       1.76
H       3.51       3.39      14.22
H       2.34      18.18      12.07
H       3.26      14.63      15.43
H       2.02      14.08      13.30
H       7.22       8.92       1.54
H       3.12       1.77       7.42
H       5.20      15.68       7.28
H       8.48      18.31      12.79
H       7.28       3.52      14.95
H       8.14       7.07      11.58
H       6.94       7.62      13.73
H       2.28       8.51       7.41
C       2.35       1.68       0.19
C       1.15       0.79       0.11
C       1.14       4.04      17.13
C       9.93      18.59      17.04
C       8.65       3.79       6.71
C       7.90       3.49       5.45
C       5.87       2.54       1.79
C       6.57       2.89       3.07
C       6.81       1.88       4.01
C       7.47       2.18       5.20
C       6.99       4.20       3.33
C       7.66       4.50       4.51
C       3.51       9.86      16.81
C       7.37      15.77       8.87
C       6.18      16.66       8.93
C       6.08      17.67       9.91
C       4.91       3.13       9.98
C       3.71      13.66       2.30
C       2.97      13.95       3.57
C       0.96      14.92       7.24
C       1.66      14.57       5.96
C       1.90      15.57       5.01
C       2.55      15.26       3.82
C       2.07      13.25       5.70
C       2.73      12.94       4.52
C       8.48      11.80      10.23
C       7.67      17.91      17.85
C       8.87      18.79      17.93
C       8.89      15.55       0.92
C       0.09       1.00       1.01
C       1.37      15.79      11.30
C       2.12      16.09      12.56
C       4.18      17.04      16.22
C       3.47      16.71      14.94
C       3.21      17.71      14.00
C       2.55      17.41      12.81
C       3.05      15.39      14.69
C       2.37      15.09      13.51
C       6.53       9.70       1.20
C       2.66       3.81       9.14
C       3.85       2.92       9.08
C       3.95       1.92       8.11
C       5.12      16.46       8.03
C       6.32       5.91      15.73
C       7.05       5.61      14.46
C       9.06       4.65      10.78
C       8.36       4.99      12.06
C       8.12       3.99      13.01
C       7.47       4.29      14.21
C       7.94       6.31      12.33
C       7.28       6.61      13.51
C       1.58       7.73       7.76
O       3.45       5.60      17.40
O       8.69       2.88       7.59
O       9.22       4.94       6.81
O       5.57       3.52       1.00
O       3.31       8.68      16.57
O       2.38       2.69       0.91
O       5.62       1.32       1.57
O       4.58      10.26      17.48
O       8.39      16.10       9.65
O       3.73      14.58       1.43
O       4.26      12.50       2.17
O       0.66      13.94       8.03
O       8.26      12.98      10.49
O       7.39      14.73       8.18
O       0.72      16.14       7.46
O       9.57      11.44       9.56
O       6.58      13.98       0.65
O       1.34      16.70      10.42
O       0.80      14.64      11.20
O       4.52      16.04      16.97
O       6.76      10.89       1.43
O       7.63      16.90      17.12
O       4.40      18.26      16.48
O       5.44       9.33       0.54
O       1.63       3.47       8.37
O       6.29       5.00      16.62
O       5.76       7.06      15.84
O       9.37       5.64      10.01
O       1.77       6.55       7.52
O       2.63       4.86       9.82
O       9.30       3.43      10.55
O       0.51       8.13       8.45
