13

C      11.67       9.31       7.51
C      12.09       9.67       8.80
C      13.06       8.79       9.30
S      12.46       7.91       6.92
H      11.65      10.51       9.33
H      13.55       8.86      10.27
O      10.18      11.08       7.09
O      10.41       9.44       5.54
O      14.61       5.95       7.61
O      14.27       6.16       9.85
C      10.68      10.01       6.64
C      14.16       6.54       8.64
C      13.35       7.76       8.40
