13

S      10.19       3.92       8.16
H       8.25       2.78      11.04
H      10.88       2.47      11.45
O       7.37       4.09       7.23
O      13.06       3.66       8.14
O      13.33       3.39      10.39
O       6.39       3.76       9.21
C       7.44       3.85       8.48
C       8.77       3.60       9.08
C      11.17       3.33       9.47
C      12.64       3.45       9.33
C       9.05       3.04      10.34
C      10.42       2.87      10.55
