11

Zn       6.94      15.55      12.17
N       5.56      16.43      10.96
C       8.32      18.01      13.25
C       8.01      12.99      11.01
O       8.01      14.28      11.17
C       4.47      17.15      11.46
C       5.39      16.33       9.63
O       8.26      16.75      12.95
C       4.75      13.84      13.34
N       5.80      14.72      13.61
C       6.01      14.69      14.94
