736

Cu      26.63       0.17      10.63
Cu      26.78       0.16       7.99
Cu      13.74      16.26      26.97
Cu      13.63      16.31      24.33
Cu       0.31      32.67      22.66
Cu       0.31      32.89      25.29
Cu      13.24      16.75       6.15
Cu      13.38      16.62       8.79
Cu       0.16      10.23      32.84
Cu       0.14       7.59      32.95
Cu      13.41      26.96      16.71
Cu      13.48      24.32      16.68
Cu      26.83      22.54       0.11
Cu      26.83      25.18       0.08
Cu      13.60       6.52      16.32
Cu      13.41       9.16      16.39
Cu      20.95      24.10       8.97
Cu      19.25      25.68       7.71
Cu      19.51       7.37      25.15
Cu      21.28       8.81      23.81
Cu      19.26       7.88       7.34
Cu      21.06       9.20       8.77
Cu      19.50      25.34      25.51
Cu      21.16      23.87      24.08
Cu       7.45       7.62       7.58
Cu       5.72       9.17       8.85
Cu       7.85      25.26      25.87
Cu       6.11      23.85      24.46
Cu       7.46      25.57       7.77
Cu       5.69      24.22       9.19
Cu       6.08       8.72      24.02
Cu       7.81       7.32      25.44
H      23.40      25.93       2.24
H      22.63      22.35       5.56
H      11.77       5.88      20.06
H       8.08       9.14      20.52
H      24.64       6.64      29.77
H      22.13      10.50      27.96
H       9.57      24.11      14.85
H       9.98      26.84      10.75
H      23.35       2.35       7.17
H      22.71       5.82      10.64
H      11.77      19.95      27.49
H       8.14      20.28      24.14
H      24.44      29.64      22.14
H      22.64      27.97      26.43
H      11.49      12.84       5.75
H       7.89      12.61       9.12
H       3.00       6.80       2.48
H       4.26      10.79       5.10
H      17.50      24.44      18.32
H      16.86      26.66      22.70
H       2.55      21.89      29.93
H       5.45      25.84      29.21
H      17.45       6.66      14.29
H      16.60       9.55      10.36
H       3.77      31.25       7.79
H       3.57      27.37      10.84
H      15.98      12.75      27.35
H      18.95      12.21      23.43
H       4.31       1.44      24.89
H       3.33       5.92      23.03
H      17.58      18.36       7.39
H      16.03      23.06       7.69
H       4.50       9.11      31.29
H       2.99       8.23      26.66
H      16.40      23.52      14.04
H      17.96      27.47      11.51
H       2.64      26.13       2.89
H       4.39      22.26       5.41
H      17.62       6.85      18.10
H      16.67       9.04      22.44
H       2.94      30.06      26.34
H       4.97      27.70      22.49
H      16.99      14.67       9.14
H      17.34      11.21       5.64
H       1.66       4.07      10.88
H       5.45       4.05       7.69
H      15.02      20.23      24.11
H      19.24      20.53      26.70
H      24.98      22.05      29.46
H      21.70      25.72      28.91
H       9.87       9.60      14.30
H       9.56       6.13      10.79
H      24.96      10.79       3.43
H      21.43       7.35       3.89
H      11.72      23.60      20.25
H       8.24      26.94      21.37
H      25.13       3.42      22.05
H      21.44       3.79      25.32
H      10.42      19.71       5.69
H       8.64      21.35      10.01
H      25.79      28.94       8.61
H      20.92      29.29       9.47
H      10.19      14.15      23.82
H       9.92      10.51      27.16
C      24.96       1.92       9.21
C       1.75      31.40       9.42
C       1.66       1.90       9.36
C      25.11      31.38       9.22
C      11.88      17.96      25.75
C      15.51      14.62      25.53
C      15.34      18.11      25.61
C      12.02      14.47      25.67
C      25.42      30.98      24.18
C       1.89       1.58      23.89
C       2.09      31.05      24.07
C      25.19       1.46      23.80
C      11.61      14.89       7.43
C      14.95      18.53       7.45
C      15.12      15.00       7.33
C      11.51      18.37       7.71
C      25.21       8.82      31.14
C       1.79       8.94       1.59
C       1.87       8.83      31.13
C      25.11       8.99       1.51
C      15.19      25.67      18.45
C      11.72      25.62      14.92
C      11.73      25.54      18.48
C      15.21      25.69      14.95
C       1.96      23.88      31.56
C      25.02      23.89       1.79
C      25.22      23.86      31.39
C       1.69      23.89       1.94
C      11.77       7.64      18.09
C      15.18       8.00      14.55
C      15.22       7.94      18.12
C      11.74       7.77      14.63
C      21.59      26.82       8.78
C      18.67      22.93       7.86
C      21.33      24.53       6.23
C      18.85      25.23      10.45
C      21.76       8.32      26.53
C      19.01       7.91      22.45
C      21.66       6.03      23.93
C      19.14      10.14      25.05
C      21.39       6.43       8.45
C      18.90      10.63       7.68
C      21.50       8.92       6.02
C      18.81       8.20      10.08
C      18.88      22.64      25.13
C      21.76      26.57      24.44
C      19.03      25.13      22.75
C      21.64      24.10      26.83
C       7.93       8.14      10.27
C       5.28       8.60       6.12
C       7.95      10.40       7.68
C       5.22       6.43       8.84
C       8.32      24.95      23.13
C       5.68      24.11      27.23
C       8.29      22.50      25.60
C       5.63      26.59      24.78
C       5.39      27.02       8.95
C       7.83      22.83       8.03
C       5.19      24.55       6.46
C       7.94      25.18      10.53
C       8.27       7.63      22.69
C       5.59       8.42      26.75
C       8.29      10.06      25.13
C       5.64       5.96      24.32
C      23.23      25.14       2.97
C      23.96      23.94       2.85
C      23.72      22.90       3.78
C      22.80      23.12       4.83
C      22.13      24.35       4.98
C      22.33      25.37       4.02
C      21.64      26.72       4.13
C      24.44      21.56       3.72
C      10.94       6.57      20.16
C      10.76       7.55      19.17
C       9.67       8.45      19.27
C       8.87       8.41      20.42
C       9.10       7.49      21.46
C      10.12       6.51      21.30
C      10.36       5.40      22.31
C       9.34       9.44      18.17
C      24.09       7.49      29.39
C      24.23       8.74      30.02
C      23.48       9.85      29.52
C      22.69       9.67      28.37
C      22.59       8.43      27.74
C      23.29       7.31      28.25
C      23.25       5.97      27.55
C      23.51      11.21      30.19
C       9.65      24.70      13.94
C      10.72      25.59      13.83
C      10.85      26.38      12.66
C       9.89      26.24      11.64
C       8.82      25.32      11.73
C       8.69      24.54      12.92
C       7.57      23.53      13.12
C      12.03      27.30      12.45
C      23.21       3.11       7.93
C      23.95       3.01       9.12
C      23.75       3.99      10.14
C      22.87       5.06       9.88
C      22.18       5.19       8.67
C      22.34       4.18       7.67
C      21.64       4.26       6.32
C      24.49       3.96      11.46
C      10.96      20.02      26.77
C      10.83      19.02      25.80
C       9.76      19.08      24.88
C       8.92      20.21      24.89
C       9.11      21.27      25.79
C      10.10      21.14      26.80
C      10.28      22.16      27.91
C       9.48      17.96      23.89
C      24.06      29.29      23.09
C      24.48      29.92      24.28
C      23.94      29.44      25.53
C      23.04      28.37      25.51
C      22.66      27.73      24.32
C      23.16      28.20      23.09
C      22.73      27.58      21.77
C      24.31      30.02      26.89
C      10.70      12.79       6.47
C      10.59      13.81       7.43
C       9.52      13.78       8.36
C       8.67      12.66       8.37
C       8.82      11.59       7.47
C       9.82      11.68       6.47
C       9.98      10.62       5.38
C       9.25      14.93       9.30
C       3.26       7.68       3.04
C       2.72       8.93       2.66
C       3.11      10.10       3.40
C       3.97       9.94       4.51
C       4.46       8.68       4.90
C       4.11       7.53       4.15
C       4.58       6.14       4.54
C       2.61      11.50       3.07
C      17.38      24.93      19.29
C      16.22      25.67      19.51
C      16.04      26.33      20.74
C      17.01      26.18      21.74
C      18.16      25.38      21.55
C      18.38      24.79      20.27
C      19.63      23.99      19.93
C      14.79      27.15      21.04
C       3.19      22.76      29.79
C       3.02      23.88      30.62
C       3.90      24.99      30.45
C       4.81      24.98      29.37
C       4.86      23.92      28.46
C       4.09      22.76      28.70
C       4.21      21.52      27.83
C       3.94      26.18      31.40
C      17.27       7.29      13.43
C      16.12       8.10      13.41
C      15.86       8.93      12.29
C      16.78       8.92      11.22
C      17.93       8.13      11.25
C      18.19       7.30      12.36
C      19.43       6.42      12.40
C      14.61       9.78      12.18
C       3.74      30.42       8.48
C       2.72      30.38       9.45
C       2.71      29.30      10.38
C       3.63      28.25      10.20
C       4.62      28.28       9.20
C       4.76      29.46       8.42
C       5.99      29.75       7.58
C       1.67      29.18      11.49
C      16.65      12.64      26.51
C      16.57      13.58      25.46
C      17.47      13.47      24.37
C      18.32      12.35      24.30
C      18.33      11.36      25.30
C      17.53      11.54      26.46
C      17.59      10.59      27.64
C      17.55      14.51      23.26
C       4.12       2.43      24.48
C       2.89       2.65      23.85
C       2.61       3.92      23.30
C       3.56       4.94      23.43
C       4.78       4.75      24.11
C       5.08       3.45      24.62
C       6.39       3.12      25.33
C       1.25       4.23      22.70
C      17.26      19.40       7.44
C      15.89      19.66       7.46
C      15.43      21.00       7.51
C      16.38      22.04       7.60
C      17.76      21.78       7.63
C      18.21      20.43       7.51
C      19.69      20.08       7.44
C      13.95      21.32       7.52
C       4.19       8.93      30.27
C       2.82       8.76      30.01
C       2.37       8.52      28.69
C       3.32       8.43      27.67
C       4.69       8.57      27.92
C       5.14       8.83      29.23
C       6.61       9.04      29.55
C       0.89       8.37      28.38
C      16.74      24.39      13.49
C      16.26      25.66      13.87
C      16.75      26.81      13.19
C      17.61      26.62      12.08
C      18.04      25.35      11.68
C      17.62      24.21      12.42
C      18.04      22.80      12.03
C      16.40      28.23      13.61
C       3.01      25.27       3.43
C       2.62      23.98       3.01
C       3.18      22.85       3.71
C       4.00      23.09       4.84
C       4.34      24.38       5.25
C       3.86      25.49       4.52
C       4.23      26.91       4.90
C       2.95      21.41       3.28
C      17.43       7.33      19.05
C      16.20       7.99      19.22
C      15.91       8.62      20.46
C      16.87       8.57      21.48
C      18.10       7.92      21.30
C      18.39       7.30      20.07
C      19.72       6.60      19.84
C      14.58       9.32      20.71
C       3.38      29.57      25.48
C       3.06      30.01      24.18
C       3.67      29.35      23.07
C       4.51      28.24      23.31
C       4.79      27.79      24.61
C       4.21      28.46      25.71
C       4.38      27.94      27.13
C       3.46      29.78      21.62
C      17.07      13.91       8.38
C      16.19      13.97       7.28
C      16.31      13.00       6.25
C      17.26      11.97       6.40
C      18.08      11.86       7.54
C      18.00      12.87       8.54
C      18.85      12.83       9.80
C      15.41      13.01       5.02
C       2.50       4.08      10.20
C       2.69       2.96       9.37
C       3.82       2.92       8.51
C       4.63       4.06       8.40
C       4.39       5.23       9.15
C       3.34       5.21      10.12
C       3.09       6.36      11.08
C       4.18       1.68       7.73
C      15.94      20.30      24.68
C      16.27      19.26      25.56
C      17.48      19.33      26.30
C      18.31      20.45      26.14
C      17.97      21.49      25.26
C      16.77      21.42      24.52
C      16.39      22.50      23.51
C      17.90      18.21      27.24
C      24.24      22.84      29.35
C      24.21      23.87      30.30
C      23.23      24.89      30.18
C      22.40      24.90      29.05
C      22.48      23.91      28.05
C      23.38      22.82      28.23
C      23.45      21.66      27.26
C      23.04      25.96      31.24
C       9.80       8.85      13.53
C      10.69       7.76      13.57
C      10.60       6.75      12.57
C       9.63       6.89      11.56
C       8.79       8.01      11.48
C       8.86       9.01      12.50
C       7.99      10.25      12.48
C      11.54       5.55      12.53
C      24.17      10.06       3.53
C      24.08       9.04       2.57
C      23.03       8.09       2.66
C      22.19       8.12       3.78
C      22.34       9.08       4.80
C      23.31      10.11       4.64
C      23.44      11.26       5.62
C      22.80       7.04       1.59
C      10.95      24.32      20.48
C      10.80      25.44      19.64
C       9.80      26.41      19.95
C       9.00      26.22      21.10
C       9.17      25.10      21.93
C      10.15      24.13      21.62
C      10.35      22.90      22.48
C       9.55      27.62      19.07
C      24.31       3.52      22.76
C      24.15       2.51      23.72
C      23.06       2.58      24.62
C      22.24       3.71      24.60
C      22.47       4.79      23.72
C      23.51       4.68      22.76
C      23.83       5.77      21.75
C      22.76       1.45      25.60
C      10.03      20.05       6.64
C      10.46      19.43       7.83
C       9.94      19.89       9.08
C       9.03      20.96       9.07
C       8.65      21.61       7.89
C       9.13      21.14       6.65
C       8.70      21.78       5.34
C      10.34      19.30      10.43
C      24.72      29.00       8.80
C      24.18      30.24       9.16
C      22.80      30.36       9.41
C      21.99      29.22       9.29
C      22.52      27.96       8.95
C      23.92      27.85       8.70
C      24.57      26.54       8.28
C      22.19      31.70       9.78
C      10.13      13.35      24.54
C      11.01      13.38      25.64
C      10.93      12.34      26.61
C       9.99      11.31      26.43
C       9.14      11.26      25.30
C       9.21      12.31      24.34
C       8.36      12.32      23.08
C      11.87      12.29      27.81
O      25.36       1.49      10.34
O       1.20      31.81      10.49
O       1.18       1.46      10.45
O      25.43      31.88      10.34
O      25.64      31.80       8.14
O       1.23       1.48       8.24
O       1.43      31.91       8.30
O      25.44       1.43       8.14
O      12.39      17.53      26.83
O      15.09      15.01      26.67
O      14.99      17.62      26.72
O      12.47      14.91      26.77
O      12.41      14.96      24.57
O      14.87      17.67      24.52
O      15.00      15.07      24.47
O      12.29      17.55      24.63
O      25.85      31.35      23.04
O       1.46       1.04      22.82
O       1.65      31.42      22.94
O      25.66       0.95      22.73
O      25.66       1.12      24.93
O       1.63      31.59      25.12
O       1.47       1.19      25.02
O      25.86      31.55      25.22
O      12.00      15.38       6.32
O      14.48      18.11       6.34
O      14.62      15.50       6.27
O      11.89      17.98       6.56
O      12.04      17.87       8.74
O      14.70      15.38       8.47
O      14.61      17.99       8.55
O      12.10      15.29       8.53
O      25.68       9.94      31.52
O       1.35      10.02       1.09
O       1.48       9.96      31.56
O      25.56      10.07       1.02
O      25.57       7.87       1.14
O       1.42       7.75      31.62
O       1.36       7.83       1.13
O      25.64       7.75      31.67
O      14.71      26.77      18.02
O      12.13      26.73      15.39
O      12.12      26.67      18.03
O      14.74      26.78      15.41
O      14.76      24.58      15.39
O      12.20      24.47      17.99
O      12.17      24.52      15.38
O      14.79      24.57      17.97
O       1.46      22.77      31.95
O      25.48      22.79       1.37
O      25.64      22.76      31.86
O       1.28      22.78       1.48
O       1.24      24.97       1.44
O      25.68      24.96      31.83
O      25.47      24.98       1.32
O       1.49      24.97      31.99
O      12.31       6.59      17.64
O      14.85       6.85      14.99
O      14.90       6.82      17.62
O      12.26       6.69      15.05
O      12.12       8.89      15.10
O      14.71       9.02      17.69
O      14.69       9.05      15.06
O      12.13       8.78      17.67
O      21.91      25.67       9.21
O      19.75      22.78       8.50
O      21.71      23.95       7.29
O      19.89      24.50      10.44
O      18.47      25.83       9.39
O      20.30      25.27       6.24
O      18.33      24.09       7.46
O      20.49      27.00       8.17
O      20.68       7.65      26.56
O      18.63       7.36      23.53
O      20.58       5.96      24.59
O      18.75       9.02      25.49
O      20.19      10.22      24.34
O      22.08       7.16      23.53
O      20.13       8.51      22.39
O      22.13       8.90      25.46
O      20.33       6.41       7.76
O      18.49       9.55       7.17
O      20.41       8.28       5.95
O      18.41       7.73       8.98
O      19.92       8.82      10.17
O      21.91       9.37       7.13
O      19.98      10.65       8.35
O      21.82       7.52       8.95
O      18.55      23.75      25.64
O      20.71      26.68      25.14
O      18.70      25.64      23.87
O      20.59      24.80      26.91
O      22.00      23.62      25.71
O      20.04      24.38      22.68
O      22.08      25.47      23.90
O      19.96      22.51      24.49
O       8.31       7.56       9.20
O       6.35       7.91       6.13
O       8.31       9.25       7.27
O       6.30       6.29       8.17
O       4.84       7.58       9.19
O       6.87      10.53       8.33
O       4.91       9.22       7.17
O       6.86       8.82      10.28
O       8.69      25.46      24.22
O       6.74      24.81      27.29
O       8.68      23.61      26.05
O       6.70      26.66      25.46
O       5.26      25.49      24.26
O       7.22      22.43      24.91
O       5.28      23.65      26.12
O       7.25      24.26      23.05
O       6.45      27.04       8.26
O       8.23      23.91       7.51
O       6.27      25.22       6.39
O       8.33      25.65       9.41
O       6.82      24.58      10.60
O       4.81      24.04       7.56
O       6.79      22.79       8.75
O       4.95      25.92       9.40
O       7.20       8.30      22.62
O       5.22       8.91      25.64
O       7.21      10.12      24.47
O       5.27       7.07      23.83
O       6.70       5.90      25.01
O       8.66       8.95      25.64
O       6.66       7.75      26.84
O       8.65       7.14      23.79
F      22.08      27.61       3.16
F      21.90      27.29       5.36
F      20.28      26.57       3.96
F      25.81      21.77       3.79
F      24.13      20.91       2.54
F      24.09      20.73       4.77
F      11.21       4.43      21.82
F       9.16       4.78      22.62
F      10.93       5.93      23.46
F       9.42       8.83      16.93
F      10.22      10.51      18.22
F       8.05       9.94      18.31
F      24.06       5.03      28.17
F      23.70       6.11      26.25
F      21.96       5.47      27.54
F      24.73      11.81      29.99
F      23.27      11.08      31.55
F      22.53      12.05      29.68
F       7.69      22.85      14.32
F       7.61      22.58      12.11
F       6.35      24.17      13.12
F      13.21      26.60      12.63
F      11.98      28.36      13.34
F      12.06      27.83      11.17
F      21.91       5.48       5.72
F      20.27       4.12       6.50
F      22.06       3.27       5.46
F      25.86       3.94      11.24
F      24.12       2.84      12.18
F      24.22       5.07      12.24
F      11.07      21.67      28.94
F       9.05      22.49      28.46
F      10.89      23.30      27.41
F       9.58      16.73      24.52
F      10.39      18.02      22.85
F       8.21      18.05      23.35
F      23.14      28.33      20.68
F      21.35      27.48      21.72
F      23.28      26.31      21.65
F      23.98      31.36      26.94
F      25.67      29.86      27.12
F      23.64      29.40      27.93
F      10.81      11.06       4.36
F       8.75      10.32       4.82
F      10.54       9.48       5.92
F       9.27      16.12       8.61
F      10.20      14.95      10.30
F       8.00      14.82       9.90
F       3.96       5.15       3.80
F       4.28       5.91       5.87
F       5.94       6.03       4.34
F       1.23      11.55       3.17
F       3.01      11.86       1.80
F       3.12      12.45       3.94
F      19.68      23.65      18.59
F      19.66      22.82      20.66
F      20.76      24.75      20.20
F      13.66      26.37      20.82
F      14.75      28.26      20.22
F      14.75      27.58      22.35
F       3.66      20.41      28.45
F       5.54      21.24      27.57
F       3.54      21.72      26.64
F       3.92      25.74      32.72
F       2.86      27.01      31.17
F       5.10      26.93      31.24
F      19.46       5.63      13.54
F      20.56       7.21      12.39
F      19.44       5.59      11.30
F      14.66      10.81      13.11
F      13.49       9.01      12.41
F      14.48      10.36      10.93
F       6.00      31.05       7.11
F       6.04      28.91       6.49
F       7.13      29.58       8.35
F       0.39      29.27      10.96
F       1.86      30.19      12.41
F       1.76      27.98      12.16
F      17.01      11.15      28.77
F      18.90      10.29      27.95
F      16.91       9.43      27.33
F      17.55      15.78      23.80
F      16.47      14.37      22.41
F      18.70      14.38      22.51
F       6.50       1.77      25.62
F       6.46       3.82      26.52
F       7.46       3.46      24.52
F       0.28       4.03      23.66
F       1.01       3.40      21.62
F       1.15       5.54      22.26
F      19.88      18.78       7.01
F      20.26      20.21       8.70
F      20.34      20.92       6.55
F      13.36      20.76       8.64
F      13.35      20.80       6.38
F      13.71      22.68       7.55
F       6.80       9.52      30.83
F       7.16       9.96      28.67
F       7.28       7.84      29.43
F       0.22       9.51      28.77
F       0.39       7.27      29.05
F       0.67       8.18      27.03
F      17.40      21.84      12.80
F      19.40      22.65      12.22
F      17.73      22.56      10.71
F      17.09      29.17      12.86
F      16.74      28.42      14.94
F      15.05      28.46      13.44
F       3.52      27.85       4.17
F       5.57      27.11       4.65
F       3.96      27.12       6.24
F       3.34      21.25       1.96
F       1.61      21.09       3.42
F       3.68      20.52       4.04
F      19.75       5.94      18.63
F      19.93       5.67      20.84
F      20.73       7.54      19.85
F      13.54       8.45      20.45
F      14.47      10.43      19.90
F      14.46       9.73      22.03
F       3.65      28.67      28.05
F       5.70      27.98      27.50
F       3.92      26.63      27.17
F       3.77      31.12      21.48
F       2.15      29.55      21.25
F       4.27      29.07      20.74
F      18.52      13.85      10.68
F      20.19      12.98       9.47
F      18.66      11.63      10.46
F      15.66      14.15       4.27
F      14.09      12.99       5.41
F      15.63      11.91       4.21
F       2.22       6.01      12.09
F       2.53       7.43      10.39
F       4.28       6.76      11.67
F       3.32       1.52       6.66
F       4.10       0.57       8.55
F       5.47       1.74       7.23
F      15.19      22.22      22.87
F      17.38      22.58      22.55
F      16.26      23.71      24.15
F      17.85      16.99      26.58
F      17.05      18.17      28.33
F      19.19      18.39      27.70
F      24.17      20.60      27.79
F      24.08      22.06      26.09
F      22.18      21.20      26.97
F      24.05      26.90      31.14
F      23.04      25.40      32.50
F      21.83      26.63      31.08
F       8.31      11.13      13.50
F       6.66       9.90      12.64
F       8.16      10.93      11.29
F      11.30       4.74      13.62
F      12.85       5.98      12.54
F      11.36       4.79      11.39
F      24.20      12.29       5.09
F      24.06      10.82       6.78
F      22.19      11.78       5.92
F      23.75       6.04       1.69
F      22.87       7.61       0.33
F      21.55       6.45       1.71
F      11.37      22.09      22.01
F       9.19      22.16      22.51
F      10.68      23.29      23.77
F       9.42      27.22      17.75
F      10.61      28.50      19.18
F       8.39      28.29      19.43
F      24.72       5.34      20.78
F      24.41       6.85      22.40
F      22.68       6.17      21.11
F      23.67       1.50      26.65
F      22.85       0.23      24.96
F      21.49       1.56      26.12
F       9.06      21.00       4.25
F       9.30      23.02       5.21
F       7.32      21.93       5.32
F      11.68      19.54      10.67
F      10.09      17.94      10.45
F       9.62      19.86      11.47
F      25.89      26.70       7.92
F      23.90      26.01       7.19
F      24.52      25.64       9.33
F      22.48      32.63       8.79
F      22.72      32.14      10.98
F      20.82      31.62       9.91
F       8.70      13.36      22.23
F       7.03      12.48      23.41
F       8.53      11.14      22.38
F      11.60      13.34      28.66
F      13.18      12.36      27.38
F      11.72      11.11      28.52
