31

O       7.53       0.35       9.58
O       9.46       0.11       8.59
O      10.75      -2.35       9.67
O      11.09      -2.23       7.49
H       9.93      -9.13       5.19
H       8.63      -5.34       5.46
H      10.36      -7.10       8.62
H       5.92      -1.40       8.48
H       5.32      -3.54       7.87
H       6.93      -5.17       7.55
C      10.24      -8.31       7.00
C       9.81      -8.36       5.69
C       9.21      -7.25       5.10
C       9.04      -6.08       5.84
C       9.50      -6.04       7.14
C      10.08      -7.14       7.74
C      10.94      -9.50       7.62
C       8.80      -7.30       3.65
C       8.51      -3.96       7.92
C       8.90      -2.68       8.26
C       7.92      -1.70       8.46
C       6.57      -2.04       8.33
C       6.22      -3.32       7.98
C       7.18      -4.30       7.78
C      10.36      -2.39       8.50
C       8.30      -0.32       8.90
O      11.19      -9.41       8.86
O      11.25     -10.45       6.88
O       9.23      -8.29       2.99
O       8.10      -6.38       3.18
O       9.54      -4.89       7.91
