31

H       8.20       2.76      13.94
H       9.50      -1.03      14.20
H       7.76       0.73      17.37
H      12.21      -4.97      17.23
H      12.81      -2.84      16.62
H      11.20      -1.21      16.30
C       7.89       1.94      15.75
C       8.32       1.99      14.43
C       8.91       0.88      13.85
C       9.09      -0.29      14.58
C       8.63      -0.33      15.89
C       8.05       0.77      16.48
C       7.18       3.12      16.37
C       9.33       0.93      12.39
C       9.62      -2.41      16.67
C       9.22      -3.70      17.00
C      10.21      -4.67      17.21
C      11.55      -4.33      17.08
C      11.91      -3.05      16.72
C      10.95      -2.07      16.53
C       7.76      -3.98      17.25
C       9.82      -6.05      17.65
O       6.94       3.04      17.61
O       6.88       4.08      15.63
O       8.90       1.92      11.74
O      10.03       0.01      11.93
O       8.59      -1.49      16.66
O      10.60      -6.72      18.32
O       8.67      -6.48      17.33
O       7.37      -4.03      18.42
O       7.03      -4.14      16.24
