31

H       1.23       9.13      12.31
H       2.53       5.34      12.04
H       0.79       7.10       8.87
H       5.24       1.40       9.02
H       5.84       3.54       9.62
H       4.23       5.17       9.94
C       0.92       8.31      10.49
C       1.35       8.36      11.81
C       1.94       7.25      12.39
C       2.12       6.08      11.66
C       1.66       6.04      10.35
C       1.08       7.14       9.76
C       0.21       9.50       9.87
C       2.36       7.30      13.85
C       2.65       3.96       9.57
C       2.25       2.68       9.24
C       3.24       1.70       9.03
C       4.58       2.04       9.17
C       4.94       3.32       9.52
C       3.98       4.30       9.71
C       0.80       2.39       8.99
C       2.85       0.32       8.59
O      -0.03       9.41       8.63
O      -0.09      10.45      10.61
O       1.93       8.29      14.51
O       3.06       6.38      14.32
O       1.62       4.89       9.58
O       3.63      -0.35       7.92
O       1.70      -0.11       8.91
O       0.40       2.35       7.82
O       0.07       2.23      10.00
