303

C       9.19      11.14      45.31
C      15.19       0.51      29.25
C       7.99      12.92      44.13
C       8.14      12.69       3.31
C      12.19       5.88      31.24
C      12.67       5.15      30.12
C       8.68      11.67      32.04
C       8.85      11.20       1.50
C      14.88       0.89      22.52
C       8.30      11.56      44.31
C      15.04       0.23      12.60
C       7.67      12.91      13.48
C       7.22      13.49      25.20
C      -0.77       2.21      33.52
C      -5.91      12.07      46.15
C      -6.27      13.44      45.99
C       0.69       0.20      45.01
C      -4.93      11.68      47.27
C      -5.78      12.00       1.21
C      -5.62      13.18       1.98
C      -6.52      13.52       3.01
C       7.96      11.53       2.54
C      -4.43      10.23      47.23
C      -3.61      12.46      47.18
C      -2.69      12.47       0.97
C      -1.44      13.13       0.89
C       6.84       0.12      47.00
C       5.97       0.07      45.89
C      -3.15      13.06      45.97
C      -3.85       9.70      46.05
C      -3.27       8.42      46.00
C      -3.22       7.61      47.16
C      -3.76       8.13       1.06
C      -4.33       9.41       1.09
C       8.17       0.80      46.90
C       7.04      13.39      43.09
C       7.16      13.06       4.37
C      -2.53       6.29      47.12
C      13.71       0.65      12.78
C      12.90       0.08      13.78
C       5.49      12.69      14.62
C       6.85      12.33      14.46
C       4.66      12.04      15.74
C       5.36      12.62      16.97
C       6.30      11.89      17.75
C       7.04      12.50      18.78
C      14.77       0.21      19.08
C      13.85       0.96      18.30
C      13.12       0.35      17.27
C       3.16      12.33      15.70
C       4.67      10.51      15.65
C       4.22       9.70      16.73
C       4.17       8.30      16.65
C       4.53       7.63      15.47
C       4.92       8.41      14.36
C       4.97       9.81      14.44
C       2.41      12.09      14.52
C       1.01      12.23      14.47
C       0.28      12.59      15.63
C       1.00      12.80      16.82
C       2.40      12.66      16.86
C       4.46       6.14      15.37
C       0.16       0.82      11.56
C      -0.20       0.88      20.13
C      -1.21      12.66      15.58
C       0.53       0.47      28.37
C       1.55       1.42      28.54
C       1.47       2.40      29.55
C       0.33       2.52      30.39
C      -0.67       1.52      30.22
C       0.17       3.56      31.50
C       0.33       2.66      32.74
C      -0.62       1.26      34.55
C       0.65       0.71      34.84
C       1.75       1.14      34.07
C       1.59       2.08      33.04
C       1.18       4.71      31.47
C      -1.16       4.31      31.41
C      -1.63       5.10      32.50
C      -2.82       5.85      32.42
C      -1.91       4.41      30.21
C       1.35       5.48      30.28
C       2.17       6.62      30.24
C       2.84       7.08      31.39
C       2.67       6.35      32.59
C       1.84       5.21      32.63
C      10.93       6.68      31.13
C      -7.29      13.06      27.32
C      -7.06      13.34      35.90
C       3.64       8.33      31.35
C       1.18       0.28      38.28
C      -6.21      13.17      39.36
C      -6.70      13.35      40.66
C       0.16       0.61      40.96
C      -0.35       1.36      39.88
C       0.16       1.21      38.59
C      -5.13      11.90      40.65
C      -1.32       2.74      38.61
C      -4.17      10.90      41.14
C      13.56       3.81      38.14
C       7.50      12.45       6.75
C       6.59      12.40       7.83
C       6.99      12.74       9.13
C      -7.47      13.17       9.43
C      -6.56      13.24       8.35
C      -6.95      12.87       7.06
C       4.95      12.11       9.12
C      -4.88      13.39       7.08
C       3.61      11.78       9.61
C      -3.51      13.62       6.61
C      -0.47       1.70      23.60
C      -0.38       1.19      24.89
C       6.82      12.68      24.11
C       6.70      13.20      22.82
C       0.09       3.27      24.88
C       6.11      11.15      22.85
C       0.48       4.60      25.37
C       5.63       9.84      22.38
C       9.42       2.80       0.25
C       9.18       4.14      47.15
C      10.22       4.97      46.73
C      11.56       4.54      46.69
C      11.81       3.22      47.12
C      10.77       2.38       0.24
C       8.37       6.01      46.63
C      12.64       1.34       0.31
C       7.41       7.11      46.43
C      13.61       0.26       0.50
C       5.56       4.05      16.02
C       6.84       3.59      15.62
C       7.04       2.28      15.19
C       6.00       1.33      15.15
C       4.73       1.77      15.59
C       4.52       3.09      16.01
C       8.87       3.36      15.09
C       2.69       2.00      16.08
C      10.30       3.65      14.89
C       1.27       1.70      16.27
C       8.58       6.77      31.78
C       7.54       5.89      31.39
C       6.30       6.38      30.96
C       6.00       7.76      30.92
C       7.02       8.63      31.35
C       8.26       8.15      31.77
C       6.32       4.25      30.86
C       8.23      10.28      31.84
C       5.86       2.87      30.66
H      14.04       2.51      33.30
H       8.63      12.11      27.84
H       8.68      12.19      31.08
H      15.26       0.40       4.77
H      11.21       7.73      31.29
H       9.34      10.14      45.43
H       7.74      13.03      36.30
H      14.26       1.51      30.82
H       8.01      12.18      32.72
H      12.17       5.17      29.23
H      -4.36       9.95      40.64
H      -1.99       4.73      38.68
H      -0.82      13.12       1.70
H      -2.93      12.00       1.84
H       6.24       0.49      45.00
H      -3.70      13.01      45.12
H      -3.82      10.27      45.19
H      -2.86       8.09      45.13
H      -3.70       7.59       1.92
H      -4.63       9.76       2.00
H       8.65      10.37       0.94
H       7.15      10.92       2.70
H       1.52       0.73       3.53
H       3.00       0.20       1.77
H       2.03       0.50      46.59
H       7.85      10.85      43.72
H       0.47       1.20      44.94
H       8.30       1.19      45.88
H       8.94       0.04      47.06
H       6.17      13.12       3.92
H       6.73      12.57      42.43
H      14.02       0.09      43.60
H      -2.47       5.83       0.81
H      -1.50       6.47      46.79
H       3.85       7.77      17.47
H       3.94      10.15      17.61
H       5.15       7.96      13.47
H       5.20      10.31      13.58
H       2.88      11.79      13.66
H       0.52      12.04      13.59
H       0.50      13.02      17.69
H       2.85      12.74      17.77
H      12.50       0.94      16.71
H      13.73       1.96      18.47
H       7.72      11.93      19.30
H       6.52      10.92      17.54
H       7.27      11.61      15.05
H      11.96       0.46      13.89
H      13.31       1.39      12.19
H      -7.12      12.60      13.41
H       4.73       5.82      14.35
H       3.42       5.85      15.52
H       0.35       1.71      19.68
H       0.56       0.20      20.54
H      -0.40       1.50      10.90
H       0.91       1.43      12.07
H      -1.64      12.83      16.58
H      -1.56      11.67      15.26
H      -3.12       6.40      33.24
H      -1.10       5.13      33.38
H      -1.59       3.96      29.35
H       0.85       5.22      29.43
H       2.25       7.15      29.36
H       3.10       6.67      33.46
H       1.69       4.78      33.54
H       2.41       2.32      32.47
H       2.68       0.74      34.23
H      14.32       0.96      35.06
H       2.26       3.03      29.66
H       2.39       1.39      27.95
H       6.55      13.48      29.17
H      10.53       6.61      30.12
H      -6.61      12.45      35.45
H      -6.42      13.20      26.67
H       4.01       8.62      32.34
H       2.97       9.13      31.02
H      -4.27      10.76      42.22
H      -3.16      11.23      40.91
H      -2.08       3.99      37.07
H      12.52       3.53      38.33
H      -5.26      13.40      36.95
H      -0.83       1.69      42.38
H       3.53      11.93      10.68
H       3.38      10.73       9.38
H       2.87      12.41       9.11
H      -3.43      13.42       5.54
H      -2.83      12.97       7.15
H       4.65       1.00       6.80
H       6.32      11.47       5.42
H      -6.04      13.49      10.85
H       0.64       4.59      26.45
H      -0.32       5.32      25.15
H       1.39       4.92      24.88
H       5.41       9.87      21.31
H       4.72       9.58      22.92
H       6.39       9.08      22.56
H      -1.15       2.41      21.18
H       6.78      12.10      26.62
H       7.91       8.01      46.07
H       6.91       7.33       0.07
H       6.66       6.80      45.70
H       5.24      13.02       0.91
H      14.39       0.59       1.19
H      14.06       0.00      46.85
H       7.49       2.42       0.70
H      -2.50       4.82      45.65
H      10.83       2.76      14.54
H      10.74       3.96      15.84
H      10.41       4.45      14.16
H       0.74       2.56      16.68
H       1.16       0.86      16.96
H       0.82       1.43      15.31
H       6.20       5.92      16.47
H      -2.50      13.37      14.12
H       4.83       2.85      30.30
H       5.91       2.33      31.61
H       6.49       2.38      29.93
H      -6.07      11.70      32.45
H       9.87       5.29      32.24
H       4.91       9.09      29.88
N      12.57       5.38      46.15
N      14.66       1.38      21.20
N      -6.00      12.54      41.45
N      -0.46       2.09      37.81
N       1.71       0.22      36.97
N      -0.24       0.85      42.31
N       5.94      12.54       9.92
N      -5.88      12.97       6.28
N       7.19      12.02       5.44
N      -7.06      13.39      10.78
N      -0.03       2.20      25.69
N       6.25      12.22      22.05
N       7.21      13.03      26.54
N       9.69       6.14      46.40
N      11.32       1.21       0.54
N       8.37       1.90       0.59
N       8.32       2.15      14.86
N       3.23       3.21      16.31
N       5.31       5.42      16.36
N       6.22       0.04      14.62
N       5.55       5.33      30.63
N       9.01       9.21      32.08
N       9.88       6.31      32.13
N       4.77       8.21      30.38
O      -5.21      12.25      39.33
O      -1.30       2.34      39.92
O       5.29      11.99       7.79
O      -5.24      13.56       8.39
O      -0.18       3.03      23.56
O       6.45      11.37      24.16
O       7.98       4.78      47.09
O      13.01       2.57      47.15
O       8.00       4.31      15.55
O       3.57       1.06      15.61
O       7.58       4.53      31.32
O       6.98       9.99      31.38
