11

C       8.31       7.34       6.36
Co       7.04       6.95       8.94
C       9.10       8.84       7.94
C       5.74       6.56      11.53
C       4.95       5.06       9.94
N       5.74       6.13      10.23
C       7.21       9.24      10.55
N       8.32       7.76       7.66
O       6.63       8.67       9.52
C       6.85       4.66       7.35
O       7.45       5.23       8.37
