70

Ni       9.46       2.41       6.31
Ni       6.73       3.96       7.75
Ni      14.94       6.47       1.97
Ni      12.21       8.01       3.41
H      10.29       6.06       4.70
H      10.32       0.45       4.28
H      15.78       5.12       5.72
H      11.50       0.47       2.07
H      13.35       7.90       0.81
H       8.32       2.52       8.91
H      13.81       9.07       1.89
H       4.84       4.30       0.14
H      15.65       8.33       9.40
H      11.35       9.98       5.44
H      16.83       6.13       9.58
H       7.86       1.36       7.83
H      10.17       9.96       7.65
H       6.02       2.10       0.32
H      11.38       4.37       5.02
H       5.89       5.31       4.00
C      12.02       3.67       3.08
C      10.17       9.07       7.02
C      15.66       7.65       8.55
C      12.68       2.58       0.86
C      15.75       5.86       6.50
C       6.54       3.33       3.44
C       7.09       3.07       4.82
C      10.85       1.33       3.92
C       6.61       2.41       2.38
C      12.58       5.02       2.73
C      14.58       7.35       4.90
C      12.09       2.54       2.24
C       9.09       5.41       6.99
C       5.36       4.00       1.05
C      10.82       9.10       5.80
C       7.20       1.03       2.51
C       9.58       7.88       7.48
C      15.13       7.10       6.28
C      11.50       1.36       2.70
C       5.92       4.56       3.22
C       6.01       2.78       1.17
C      15.06       8.01       7.34
C      16.31       6.42       8.67
C      14.47       9.39       7.21
C      10.26       6.89       5.39
C      11.41       3.53       4.33
C       8.99       7.85       8.86
C       9.65       6.76       6.64
N      10.81       2.40       4.74
N      10.86       8.02       4.98
N       5.33       4.90       2.06
N      16.34       5.53       7.66
O      17.26       3.78       9.70
O      18.84       8.39       9.06
O      12.06       6.00       3.36
O      13.65       8.21       4.79
O      13.35       9.62       7.74
O      15.10       6.65       3.97
O       4.41       6.65       0.02
O       9.90       0.49       6.63
O       8.32       0.81       1.98
O      13.58       8.05       1.82
O       8.02       2.21       4.93
O       6.57       3.77       5.75
O       9.61       4.43       6.36
O       8.16       5.36       7.86
O       2.83       2.03       0.66
O       8.09       2.38       7.90
O      13.51       5.07       1.86
O      11.77       9.94       3.09
