34

O       4.41       4.30       2.02
O       2.41       5.33       1.83
O       4.27       7.50      12.91
O       2.22       6.60      13.08
O       1.10       6.70       6.48
O       1.30       4.72       8.46
H       5.32       4.34       4.39
H       5.22       4.88       6.82
H       1.40       6.03       3.87
H       5.06       7.17       8.11
H       5.14       7.62      10.56
H       1.48       5.45      11.08
H      -0.83       7.32       6.34
H      -0.45       5.90       5.31
H       0.09       7.54       4.83
H      -0.46       3.74       8.59
H      -0.34       5.15       9.70
H       0.53       3.61      10.07
C       3.40       4.90       2.52
C       3.37       5.16       3.99
C       4.45       4.84       4.81
C       4.39       5.14       6.17
C       3.25       5.73       6.74
C       2.15       6.05       5.90
C       2.22       5.76       4.53
C       3.25       6.03       8.19
C       4.29       6.77       8.76
C       4.33       7.03      10.13
C       3.30       6.56      10.96
C       2.26       5.80      10.41
C       2.23       5.52       9.05
C       3.27       6.90      12.41
C      -0.09       6.87       5.68
C       0.20       4.29       9.27
