198

C       0.98      16.47      35.54
C       0.93      15.06      35.66
C      16.40      15.09      35.65
C      16.39      16.50      35.53
C      15.11      17.15      35.48
C      13.87      16.45      35.54
C      13.94      15.04      35.68
C      15.18      14.38      35.72
C       2.13      14.31      35.73
C       3.38      14.94      35.67
C       3.50      16.34      35.51
C       2.28      17.08      35.46
C      17.70       0.04      34.20
C      17.66       1.46      34.21
C      17.69       1.50       0.93
C      17.70       0.08       0.98
C      17.68       2.25       2.13
C      17.67       1.61       3.38
C      17.67       0.21       3.49
C      17.69      17.47       2.28
C      17.73      17.41      32.92
C      17.70       0.11      31.68
C      17.62       1.52      31.76
C      17.61       2.18      33.00
C      17.70      17.28      35.51
C      17.66       2.25      35.47
C      17.66      14.31      35.72
C      17.63      17.59       4.76
C       4.77      16.94      35.36
C      17.78      17.47      30.43
C      12.62      17.11      35.48
C      16.47      16.37      17.62
C      15.05      16.42      17.75
C      15.09       0.96      17.73
C      16.51       0.97      17.62
C      17.15       2.24      17.57
C      16.45       3.48      17.63
C      15.05       3.41      17.76
C      14.38       2.18      17.81
C      14.31      15.23      17.82
C      14.93      13.97      17.76
C      16.33      13.85      17.60
C      17.07      15.07      17.55
C       0.04      17.65      16.28
C       1.46      17.66      16.30
C       1.50      17.63      18.83
C       0.08      17.65      18.89
C       2.25      17.62      20.03
C       1.62      17.64      21.28
C       0.21      17.66      21.40
C      17.48      17.67      20.18
C      17.41      17.63      15.00
C       0.11      17.63      13.77
C       1.52      17.65      13.85
C       2.18      17.66      15.08
C      17.28      17.66      17.59
C       2.25      17.65      17.55
C      14.31      17.71      17.81
C      17.61      17.74      22.67
C      16.93      12.58      17.45
C      17.48      17.56      12.51
C      17.12       4.73      17.57
C      17.74      17.95       7.19
C       0.83      17.30       7.82
C       0.86      17.17       9.24
C      17.89      17.81      10.06
C      16.83       0.52       9.43
C      16.72       0.53       8.00
C       1.96      16.42       9.95
C       1.98      16.80       6.99
C      15.86       1.33      10.25
C      15.54       1.20       7.35
C      18.00      17.78      25.09
C      17.35      16.75      25.82
C      17.20      16.86      27.25
C      17.83      17.93      27.96
C       0.50       0.93      27.22
C       0.56       0.88      25.79
C      16.40      15.87      28.04
C      16.86      15.52      25.11
C       1.18       2.07      27.93
C       1.23       1.99      25.03
C       7.23      16.49      35.49
C       7.93      17.57       0.27
C       9.37      17.66       0.17
C      10.12      16.60      35.40
C       9.41      15.49      34.83
C       7.98      15.45      34.86
C      10.13       0.83       0.69
C       7.18       0.57       1.09
C      10.17      14.37      34.18
C       7.27      14.28      34.22
C      16.48      10.12      17.58
C      17.57       9.42      18.18
C      17.66       7.99      18.08
C      16.60       7.24      17.49
C      15.49       7.94      16.92
C      15.44       9.37      16.95
C       0.83       7.23      18.60
C       0.57      10.17      19.00
C      14.37       7.18      16.27
C      14.27      10.07      16.31
H      17.58       2.09      30.91
H      17.57       3.20      33.00
H      17.66       3.27       2.10
H      17.65       2.21       4.21
H      17.69      16.45       2.33
H      17.77      16.38      32.89
H      15.09       0.16      35.40
H      13.09      14.48      35.76
H      15.18      13.36      35.82
H       2.34       0.09      35.36
H       2.10      13.29       0.01
H       4.21      14.34      35.72
H       0.52       2.91      35.45
H      16.76       2.87      35.47
H      17.65      13.75       0.84
H      17.65      13.59      34.90
H      17.96      16.49      30.41
H      17.50      16.61       4.81
H       4.82      17.87      35.02
H      12.63       0.09      35.43
H       2.10      17.64      13.00
H       3.21      17.67      15.09
H       3.27      17.62      20.00
H       2.22      17.65      22.11
H      16.46      17.69      20.24
H      16.38      17.62      14.97
H       0.16       2.26      17.49
H      14.49       4.26      17.85
H      13.36       2.17      17.91
H       0.08      15.01      17.45
H      13.29      15.26      17.92
H      14.33      13.15      17.81
H       2.89      16.76      17.54
H       2.89       0.52      17.55
H      13.75      17.72      18.75
H      13.59      17.71      16.99
H      16.53      17.29      12.47
H      16.63      17.93      22.72
H      17.85      12.53      17.09
H       0.10       4.73      17.52
H       2.62      15.85       9.30
H       1.52      15.69      10.64
H       2.58      17.11      10.51
H       1.94      17.08       5.94
H       2.02      15.72       7.04
H       2.91      17.22       7.38
H      16.13       1.42      11.29
H      14.87       0.87      10.20
H      15.80       2.35       9.86
H      15.47       1.03       6.27
H      15.58       2.28       7.50
H      14.61       0.81       7.77
H      15.76      15.23      27.44
H      15.73      16.39      28.73
H      17.07      15.23      28.61
H      17.18      15.45      24.07
H      15.77      15.51      25.12
H      17.24      14.63      25.61
H       1.18       2.00      29.02
H       0.70       3.01      27.68
H       2.24       2.11      27.64
H       1.15       1.91      23.94
H       2.29       2.02      25.27
H       0.77       2.95      25.29
H       9.53       1.62       1.13
H      10.67       1.30      35.69
H      10.84       0.51       1.45
H       6.14       0.32       1.27
H       7.21       1.54       0.59
H       7.64       0.66       2.08
H      11.25      14.50      34.14
H       9.86      14.26      33.14
H       9.98      13.44      34.71
H       6.19      14.32      34.25
H       7.57      13.35      34.72
H       7.53      14.22      33.16
H       1.62       7.83      19.04
H       1.30       6.69      17.77
H       0.51       6.52      19.36
H       0.32      11.22      19.18
H       1.54      10.15      18.49
H       0.66       9.72      19.98
H      14.50       6.10      16.23
H      14.25       7.49      15.23
H      13.44       7.36      16.80
H      14.31      11.16      16.35
H      13.35       9.78      16.81
H      14.21       9.82      15.26
N      17.74       0.24       5.87
N       0.09      17.80      11.40
N       0.27      17.67      23.77
N      17.74       0.09      29.30
N       5.89      16.31      35.57
N      11.47      16.51      35.45
N      16.30      11.47      17.67
N      16.52       5.88      17.54
