16

V       6.64       9.11       9.94
V       3.17       8.81      10.03
O       3.59      10.53      11.00
O       5.84       9.88       8.25
O       7.03       7.39       8.97
O       5.88      10.68      10.94
O       7.07       8.20      11.68
O       3.55       9.72       8.29
O       4.74       8.14      10.22
O       9.36       8.04      11.72
O       9.32       7.24       9.02
O       8.20       9.78       9.74
C       4.67      10.06       7.72
C       4.71      11.12      11.28
C       8.19       7.88      12.26
C       8.15       6.80       8.69
