16

V       0.67      11.69       9.26
O       0.25      13.29      10.38
O       1.44      10.75      10.84
O       2.57      12.68       9.07
V       4.13      12.00       9.20
O      -2.03      13.44      10.34
O      -0.89      11.01       9.38
O       3.73      10.40       8.08
O       4.90      12.94       7.62
C      -0.86      13.18       7.10
C       2.61       9.85       7.72
C       2.62      10.52      11.35
C      -0.86      13.85      10.72
O       3.73      10.91      10.82
O       1.44      10.25       8.12
O       0.25      12.78       7.64
