12

Zn      12.30       1.82      11.06
Zn      11.19       3.46      13.10
C      13.31      -0.30      10.39
O       9.98       2.37      14.14
C      10.59       4.22      10.50
O      12.59       0.45       9.62
O      11.18       3.18      10.08
O      10.58       4.63      11.73
O      12.97       3.15      13.68
O      13.90       3.04      11.62
C      13.97       3.32      12.85
C       9.90       1.32      13.40
