10

O      14.29       3.11      21.08
O      13.13       4.80      20.20
Cd      12.08       3.55      22.03
O      10.09       4.25      20.86
O      11.71       5.26      23.45
C      10.20       3.37      19.95
C      11.25       1.49      23.83
O      12.39       1.69      23.27
C      12.73       5.46      24.22
C      14.15       4.05      20.24
