9

O       9.22      10.96      20.02
C      13.31      11.21      21.12
O      13.42      12.10      20.21
Cd      11.41      11.37      19.08
O      11.79      13.10      17.69
C      10.78      13.28      16.91
C       9.36      11.85      20.91
O      11.06       9.54      17.80
C      12.22       9.27      17.30
