9

Cd       4.28       4.24      13.79
O       2.60       3.85      15.22
O       6.10       4.51      15.09
O       3.54       2.22      12.67
C       2.31       4.90      15.90
C       3.79       6.30      11.98
O       4.69       6.43      12.87
C       4.42       2.33      11.77
C       6.34       3.36      15.62
