920

C      43.21      31.76      37.20
C      44.32      31.18      36.53
C      45.43      30.61      37.20
C      45.42      30.68      38.62
C      44.32      31.18      39.35
C      43.23      31.69      38.62
C      46.53      29.97      36.50
C      46.93      30.34      35.19
C      47.98      29.68      34.52
C      48.72      28.64      35.12
C      48.33      28.28      36.44
C      47.25      28.90      37.09
C      42.12      32.40      36.50
C      41.72      32.02      35.19
C      40.67      32.68      34.51
C      39.92      33.73      35.12
C      40.31      34.08      36.43
C      41.39      33.46      37.09
C      44.32      31.19      40.78
C      43.20      30.73      41.51
C      23.43      30.73       0.91
C      24.55      31.19       1.65
C      25.67      31.65       0.91
C      45.44      31.64      41.51
C      62.98      30.60      26.58
C      64.09      31.18      27.25
C      65.20      31.75      26.58
C      65.19      31.68      25.16
C      64.09      31.18      24.43
C      62.99      30.67      25.16
C      66.30      32.39      27.28
C      66.70      32.02      28.59
C      67.75      32.68      29.26
C      68.49      33.73      28.66
C      68.10      34.08      27.34
C      67.02      33.46      26.69
C      61.89      29.96      27.28
C      61.49      30.34      28.59
C      60.44      29.68      29.27
C      59.69      28.63      28.67
C      60.08      28.28      27.35
C      61.16      28.90      26.69
C      64.09      31.17      23.00
C      62.97      31.63      22.27
C      62.97      31.63      20.86
C      24.55      31.17      20.12
C      25.67      30.72      20.86
C      25.68      30.72      22.27
C      33.33      36.49      31.31
C      34.44      35.82      31.89
C      35.55      36.49      32.46
C      35.54      37.91      32.39
C      34.44      38.64      31.89
C      33.34      37.91      31.38
C      36.64      35.79      33.10
C      37.05      34.48      32.73
C      38.10      33.81      33.38
C      38.84      34.41      34.43
C      38.45      35.73      34.79
C      37.37      36.38      34.17
C      32.23      35.79      30.67
C      31.84      34.48      31.05
C      30.79      33.81      30.39
C      30.04      34.41      29.34
C      69.96      35.73      28.99
C      31.51      36.38      29.61
C      34.44      40.07      31.88
C      72.85      40.81      32.34
C      53.09       0.20      32.34
C      54.21       0.94      31.88
C      15.79       0.20      31.43
C      35.56      40.81      31.43
C      53.10      25.87      32.47
C      54.21      26.54      31.89
C      55.32      25.87      31.32
C      55.30      24.45      31.39
C      54.21      23.72      31.90
C      53.11      24.45      32.40
C      56.41      26.57      30.68
C      56.81      27.88      31.05
C      57.86      28.55      30.40
C      58.61      27.95      29.35
C      58.22      26.63      28.99
C      57.14      25.98      29.61
C      52.00      26.57      33.11
C      51.60      27.88      32.73
C      50.55      28.55      33.39
C      49.81      27.95      34.44
C      50.20      26.64      34.79
C      51.27      25.98      34.17
C      54.21      22.29      31.90
C      53.08      21.55      31.44
C      53.09      20.15      31.44
C      54.21      19.41      31.90
C      55.33      20.15      32.35
C      55.33      21.55      32.35
C      35.56       9.62       5.58
C      34.44      10.18       6.26
C      33.31      10.73       5.58
C      33.33      10.66       4.17
C      34.44      10.18       3.43
C      35.54       9.70       4.16
C      32.21      11.36       6.28
C      31.83      11.00       7.60
C      30.78      11.66       8.28
C      30.03      12.70       7.68
C      30.41      13.04       6.35
C      31.48      12.42       5.69
C      36.66       8.99       6.28
C      37.04       9.36       7.60
C      38.09       8.69       8.28
C      38.84       7.65       7.67
C      38.47       7.31       6.35
C      37.39       7.94       5.69
C      34.44      10.18       1.99
C      34.98       9.10       1.25
C      54.76       9.10      41.85
C      54.21      10.18      41.12
C      53.65      11.26      41.85
C      33.89      11.26       1.25
C      15.79      10.72      16.19
C      14.67      10.17      15.52
C      13.55       9.62      16.19
C      13.56       9.69      17.61
C      14.67      10.17      18.34
C      15.78      10.65      17.61
C      12.45       8.99      15.49
C      12.06       9.35      14.18
C      11.01       8.69      13.49
C      10.26       7.65      14.10
C      50.17       7.30      15.42
C      11.71       7.93      16.08
C      16.89      11.36      15.49
C      17.28      10.99      14.18
C      18.32      11.65      13.50
C      19.07      12.70      14.10
C      18.70      13.04      15.43
C      17.62      12.41      16.08
C      14.67      10.17      19.78
C      15.22      11.25      20.52
C      54.76      11.24      21.93
C      54.21      10.17      22.66
C      53.65       9.09      21.93
C      14.12       9.09      20.52
C      45.44       4.87      11.44
C      44.32       5.55      10.88
C      43.20       4.87      10.33
C      43.21       3.45      10.40
C      44.32       2.72      10.88
C      45.43       3.45      11.36
C      42.10       5.57       9.70
C      41.71       6.89      10.07
C      40.67       7.57       9.40
C      39.92       6.96       8.36
C      40.29       5.64       8.02
C      41.36       4.98       8.64
C      46.54       5.57      12.07
C      46.93       6.88      11.70
C      47.97       7.56      12.37
C      48.72       6.96      13.41
C      48.35       5.64      13.75
C      47.28       4.98      13.13
C      44.32       1.28      10.88
C      44.87       0.54      11.96
C      25.11      41.14      11.96
C      24.55      40.41      10.88
C      24.00      41.14       9.80
C      43.77       0.54       9.80
C      25.67      15.48      10.34
C      24.55      14.80      10.89
C      23.43      15.48      11.44
C      23.44      16.90      11.37
C      24.55      17.63      10.89
C      25.66      16.90      10.41
C      22.33      14.78      12.07
C      21.94      13.46      11.71
C      20.90      12.78      12.37
C      20.15      13.39      13.41
C      20.52      14.71      13.76
C      21.59      15.37      13.13
C      26.77      14.78       9.71
C      27.16      13.46      10.07
C      28.21      12.78       9.41
C      28.96      13.39       8.36
C      28.58      14.71       8.02
C      27.51      15.37       8.65
C      24.55      19.07      10.89
C      25.10      19.81       9.81
C      25.11      21.22       9.82
C      24.55      21.95      10.89
C      24.00      21.22      11.97
C      24.00      19.81      11.97
C      54.44       6.72      29.42
C      54.44       7.70      28.44
C      54.27       8.94      29.06
C      54.27       7.34      30.66
C      54.20       6.66      31.91
C      54.14       7.31      33.17
C      54.14       8.90      34.76
C      54.00       7.66      35.39
C      54.00       6.68      34.41
C      54.20      10.16      35.40
C      54.27      11.41      34.72
C      54.27      13.00      33.12
C      54.45      13.62      34.36
C      54.45      12.65      35.34
C      54.20      13.68      31.87
C      54.14      13.04      30.61
C      54.14      11.45      29.03
C      54.00      12.69      28.40
C      54.00      13.67      29.37
C      54.20      10.19      28.38
C      54.20      10.18      26.95
C      53.04       9.84      26.23
C      53.04       9.83      24.82
C      54.21      10.17      24.09
C      55.37      10.50      24.82
C      55.37      10.50      26.23
C      54.20      15.11      31.89
C      53.06      15.83      32.28
C      53.06      17.24      32.29
C      54.21      17.98      31.90
C      55.35      17.24      31.50
C      55.36      15.83      31.50
C      54.20      10.17      36.83
C      55.37       9.84      37.55
C      55.37       9.84      38.96
C      54.21      10.18      39.69
C      53.04      10.52      38.96
C      53.04      10.51      37.55
C      54.21       5.23      31.90
C      55.36       4.51      32.28
C      53.06       4.51      31.50
C      53.06       3.11      31.49
C      54.21       2.37      31.89
C      55.35       3.11      32.28
C      24.79      28.71      14.34
C      24.79      27.73      13.36
C      24.62      28.35      12.12
C      24.62      29.95      13.72
C      24.55      31.20      14.40
C      24.49      32.46      13.75
C      24.49      34.05      12.16
C      24.35      34.68      13.40
C      24.35      33.70      14.38
C      24.55      34.69      10.90
C      24.62      34.01       9.65
C      24.62      32.41       8.06
C      24.79      33.65       7.44
C      24.78      34.63       8.41
C      24.55      31.16       7.38
C      24.49      29.90       8.02
C      24.49      28.32       9.61
C      24.35      27.68       8.37
C      24.35      28.66       7.39
C      24.55      27.67      10.87
C      24.55      26.24      10.88
C      23.38      25.52      11.22
C      23.39      24.11      11.23
C      24.55      23.38      10.89
C      25.72      24.11      10.56
C      25.72      25.52      10.56
C      24.55      31.18       5.95
C      23.40      31.57       5.23
C      23.41      31.58       3.82
C      24.55      31.19       3.08
C      25.70      30.79       3.82
C      25.70      30.79       5.22
C      24.55      36.12      10.89
C      25.72      36.84      11.22
C      25.72      38.25      11.22
C      24.55      38.98      10.88
C      23.39      38.25      10.55
C      23.38      36.84      10.55
C      24.55      31.18      15.82
C      25.70      31.57      16.55
C      23.40      30.79      16.54
C      23.41      30.78      17.95
C      24.55      31.17      18.69
C      25.70      31.57      17.95
C      71.75      31.76      37.20
C      33.32      31.18      36.53
C      34.43      30.61      37.20
C      34.42      30.68      38.62
C      33.32      31.18      39.35
C      71.76      31.69      38.62
C      35.53      29.97      36.50
C      35.93      30.34      35.19
C      36.98      29.68      34.52
C      37.72      28.64      35.12
C      37.33      28.28      36.44
C      36.25      28.90      37.09
C      70.65      32.40      36.50
C      70.26      32.02      35.19
C      69.21      32.68      34.51
C      68.46      33.73      35.12
C      68.85      34.08      36.43
C      69.93      33.46      37.09
C      72.86      31.19      40.78
C      71.74      30.73      41.51
C      51.97      30.73       0.91
C      53.09      31.19       1.65
C      54.21      31.65       0.91
C      34.44      31.64      41.51
C      51.98      30.60      26.58
C      53.09      31.18      27.25
C      54.20      31.75      26.58
C      54.19      31.68      25.16
C      53.09      31.18      24.43
C      51.99      30.67      25.16
C      55.30      32.39      27.28
C      55.70      32.02      28.59
C      56.75      32.68      29.26
C      57.49      33.73      28.66
C      57.10      34.08      27.34
C      56.02      33.46      26.69
C      50.89      29.96      27.28
C      50.49      30.34      28.59
C      49.44      29.68      29.27
C      48.69      28.63      28.67
C      49.08      28.28      27.35
C      50.16      28.90      26.69
C      53.09      31.17      23.00
C      51.97      31.63      22.27
C      51.97      31.63      20.86
C      53.09      31.17      20.12
C      54.21      30.72      20.86
C      54.21      30.72      22.27
C      61.86      36.49      31.31
C      62.98      35.82      31.89
C      64.09      36.49      32.46
C      64.07      37.91      32.39
C      62.98      38.64      31.89
C      61.88      37.91      31.38
C      65.18      35.79      33.10
C      65.58      34.48      32.73
C      66.63      33.81      33.38
C      67.38      34.41      34.43
C      66.98      35.73      34.79
C      65.91      36.38      34.17
C      60.77      35.79      30.67
C      60.37      34.48      31.05
C      59.32      33.81      30.39
C      58.58      34.41      29.34
C      58.96      35.73      28.99
C      60.04      36.38      29.61
C      62.98      40.07      31.88
C      61.85      40.81      32.34
C      42.09       0.20      32.34
C      43.21       0.94      31.88
C      44.33       0.20      31.43
C      64.10      40.81      31.43
C      42.10      25.87      32.47
C      43.21      26.54      31.89
C      44.32      25.87      31.32
C      44.30      24.45      31.39
C      43.21      23.72      31.90
C      42.11      24.45      32.40
C      45.41      26.57      30.68
C      45.81      27.88      31.05
C      46.86      28.55      30.40
C      47.61      27.95      29.35
C      47.22      26.63      28.99
C      46.14      25.98      29.61
C      41.00      26.57      33.11
C      40.60      27.88      32.73
C      39.55      28.55      33.39
C      38.81      27.95      34.44
C      39.20      26.64      34.79
C      40.27      25.98      34.17
C      43.21      22.29      31.90
C      42.08      21.55      31.44
C      42.09      20.15      31.44
C      43.21      19.41      31.90
C      44.33      20.15      32.35
C      44.33      21.55      32.35
C      24.56       9.62       5.58
C      23.44      10.18       6.26
C      22.31      10.73       5.58
C      22.33      10.66       4.17
C      23.44      10.18       3.43
C      24.54       9.70       4.16
C      21.21      11.36       6.28
C      20.83      11.00       7.60
C      19.78      11.66       8.28
C      19.03      12.70       7.68
C      19.41      13.04       6.35
C      20.48      12.42       5.69
C      25.66       8.99       6.28
C      26.04       9.36       7.60
C      27.09       8.69       8.28
C      27.84       7.65       7.67
C      27.47       7.31       6.35
C      26.39       7.94       5.69
C      23.44      10.18       1.99
C      23.98       9.10       1.25
C      43.76       9.10      41.85
C      43.21      10.18      41.12
C      42.65      11.26      41.85
C      22.89      11.26       1.25
C      44.33      10.72      16.19
C      43.20      10.17      15.52
C      42.08       9.62      16.19
C      42.10       9.69      17.61
C      43.20      10.17      18.34
C      44.31      10.65      17.61
C      40.98       8.99      15.49
C      40.60       9.35      14.18
C      39.55       8.69      13.49
C      38.80       7.65      14.10
C      39.17       7.30      15.42
C      40.25       7.93      16.08
C      45.43      11.36      15.49
C      45.81      10.99      14.18
C      46.86      11.65      13.50
C      47.61      12.70      14.10
C      47.23      13.04      15.43
C      46.16      12.41      16.08
C      43.20      10.17      19.78
C      43.75      11.25      20.52
C      43.76      11.24      21.93
C      43.21      10.17      22.66
C      42.65       9.09      21.93
C      42.66       9.09      20.52
C      34.44       4.87      11.44
C      33.32       5.55      10.88
C      32.20       4.87      10.33
C      32.21       3.45      10.40
C      33.32       2.72      10.88
C      34.43       3.45      11.36
C      31.10       5.57       9.70
C      30.71       6.89      10.07
C      29.67       7.57       9.40
C      28.92       6.96       8.36
C      29.29       5.64       8.02
C      30.36       4.98       8.64
C      35.54       5.57      12.07
C      35.93       6.88      11.70
C      36.97       7.56      12.37
C      37.72       6.96      13.41
C      37.35       5.64      13.75
C      36.28       4.98      13.13
C      33.32       1.28      10.88
C      33.87       0.54      11.96
C      53.64      41.14      11.96
C      53.09      40.41      10.88
C      52.53      41.14       9.80
C      32.77       0.54       9.80
C      14.67      15.48      10.34
C      13.55      14.80      10.89
C      51.97      15.48      11.44
C      51.98      16.90      11.37
C      13.55      17.63      10.89
C      14.66      16.90      10.41
C      50.87      14.78      12.07
C      50.48      13.46      11.71
C      49.43      12.78      12.37
C      48.68      13.39      13.41
C      49.06      14.71      13.76
C      50.13      15.37      13.13
C      15.77      14.78       9.71
C      16.16      13.46      10.07
C      17.21      12.78       9.41
C      17.96      13.39       8.36
C      17.58      14.71       8.02
C      16.51      15.37       8.65
C      53.09      19.07      10.89
C      14.10      19.81       9.81
C      53.65      21.22       9.82
C      53.09      21.95      10.89
C      52.53      21.22      11.97
C      52.54      19.81      11.97
C      43.44       6.72      29.42
C      43.44       7.70      28.44
C      43.27       8.94      29.06
C      43.27       7.34      30.66
C      43.20       6.66      31.91
C      43.14       7.31      33.17
C      43.14       8.90      34.76
C      43.00       7.66      35.39
C      43.00       6.68      34.41
C      43.20      10.16      35.40
C      43.27      11.41      34.72
C      43.27      13.00      33.12
C      43.45      13.62      34.36
C      43.45      12.65      35.34
C      43.20      13.68      31.87
C      43.14      13.04      30.61
C      43.14      11.45      29.03
C      43.00      12.69      28.40
C      43.00      13.67      29.37
C      43.20      10.19      28.38
C      43.20      10.18      26.95
C      42.04       9.84      26.23
C      42.04       9.83      24.82
C      43.21      10.17      24.09
C      44.37      10.50      24.82
C      44.37      10.50      26.23
C      43.20      15.11      31.89
C      42.06      15.83      32.28
C      42.06      17.24      32.29
C      43.21      17.98      31.90
C      44.35      17.24      31.50
C      44.36      15.83      31.50
C      43.20      10.17      36.83
C      44.37       9.84      37.55
C      44.37       9.84      38.96
C      43.21      10.18      39.69
C      42.04      10.52      38.96
C      42.04      10.51      37.55
C      43.21       5.23      31.90
C      44.36       4.51      32.28
C      42.06       4.51      31.50
C      42.06       3.11      31.49
C      43.21       2.37      31.89
C      44.35       3.11      32.28
C      53.33      28.71      14.34
C      53.32      27.73      13.36
C      53.15      28.35      12.12
C      53.16      29.95      13.72
C      53.08      31.20      14.40
C      53.02      32.46      13.75
C      53.02      34.05      12.16
C      52.89      34.68      13.40
C      52.89      33.70      14.38
C      53.08      34.69      10.90
C      53.15      34.01       9.65
C      53.15      32.41       8.06
C      53.32      33.65       7.44
C      53.32      34.63       8.41
C      53.09      31.16       7.38
C      53.02      29.90       8.02
C      53.02      28.32       9.61
C      52.89      27.68       8.37
C      52.89      28.66       7.39
C      53.08      27.67      10.87
C      53.09      26.24      10.88
C      51.92      25.52      11.22
C      51.92      24.11      11.23
C      53.09      23.38      10.89
C      54.26      24.11      10.56
C      54.26      25.52      10.56
C      53.09      31.18       5.95
C      51.94      31.57       5.23
C      51.94      31.58       3.82
C      53.09      31.19       3.08
C      54.24      30.79       3.82
C      54.24      30.79       5.22
C      53.09      36.12      10.89
C      54.26      36.84      11.22
C      54.26      38.25      11.22
C      53.09      38.98      10.88
C      51.92      38.25      10.55
C      51.92      36.84      10.55
C      53.09      31.18      15.82
C      54.24      31.57      16.55
C      51.94      30.79      16.54
C      51.94      30.78      17.95
C      53.09      31.17      18.69
C      54.24      31.57      17.95
H      40.47      32.39      33.56
H      42.18      31.25      34.71
H      39.80      34.80      36.96
H      41.64      33.82      38.01
H      42.38      30.36      41.03
H      22.61      30.36       1.40
H      46.27      32.01      41.03
H      26.50      32.02       1.40
H      47.00      28.54      38.01
H      48.84      27.57      36.96
H      48.18      29.98      33.56
H      46.47      31.12      34.71
H      44.32      31.18      35.51
H      42.42      32.04      39.15
H      46.22      30.33      39.15
H      60.24      29.97      30.22
H      61.95      31.11      29.07
H      59.57      27.56      26.82
H      61.41      28.54      25.77
H      62.15      32.00      22.75
H      62.15      32.00      20.37
H      26.50      30.35      22.75
H      26.50      30.35      20.38
H      66.77      33.82      25.77
H      29.07      34.80      26.82
H      67.95      32.38      30.22
H      66.24      31.24      29.07
H      64.09      31.18      28.27
H      62.19      30.32      24.63
H      65.99      32.03      24.63
H      30.59      32.85      30.69
H      32.30      34.00      31.82
H      69.46      36.25      28.27
H      31.76      37.30      29.25
H      72.03      40.32      32.70
H      52.26       0.68      32.71
H      36.38      40.32      31.07
H      16.61       0.68      31.06
H      37.12      37.30      34.53
H      38.95      36.25      35.51
H      38.30      32.85      33.09
H      36.59      34.00      31.95
H      34.44      34.80      31.89
H      72.08      38.44      31.03
H      36.34      38.44      32.74
H      50.36      29.51      33.09
H      52.07      28.36      31.96
H      49.69      26.11      35.51
H      51.53      25.06      34.54
H      52.26      22.04      31.08
H      52.26      19.66      31.07
H      56.15      22.04      32.71
H      56.15      19.66      32.72
H      56.89      25.06      29.25
H      58.72      26.11      28.28
H      58.06      29.51      30.69
H      56.35      28.36      31.83
H      54.21      27.56      31.89
H      52.31      23.92      32.75
H      56.11      23.92      31.04
H      38.28       8.98       9.24
H      36.57      10.12       8.09
H      38.98       6.60       5.82
H      37.15       7.59       4.76
H      35.37       8.28       1.73
H      55.15       8.29      41.37
H      33.51      12.08       1.74
H      53.26      12.07      41.37
H      31.72      12.77       4.76
H      29.90      13.76       5.83
H      30.59      11.37       9.24
H      32.30      10.23       8.08
H      34.44      10.18       7.28
H      36.38       9.41       3.64
H      32.50      10.95       3.64
H      18.51      11.37      12.53
H      16.81      10.23      13.69
H      19.21      13.75      15.95
H      17.38      12.76      17.01
H      15.60      12.07      20.04
H      55.15      12.06      22.42
H      13.74       8.27      20.04
H      53.26       8.28      22.42
H      11.95       7.58      17.01
H      49.66       6.59      15.95
H      10.82       8.98      12.53
H      12.53      10.12      13.69
H      14.67      10.17      14.50
H      16.61      10.94      18.13
H      52.27       9.40      18.13
H      48.16       8.53      12.08
H      46.46       7.37      10.94
H       9.32       5.11      14.46
H      47.04       4.05      13.48
H      45.25       1.02      12.78
H      25.50      40.66      12.77
H      43.39       1.02       8.99
H      23.61      40.66       8.99
H      41.60       4.05       8.29
H      39.78       5.12       7.30
H      40.48       8.53       9.69
H      42.18       7.37      10.83
H      44.32       6.56      10.88
H      46.26       2.93      11.65
H      42.38       2.93      10.12
H      28.40      11.82       9.69
H      26.69      12.98      10.83
H      29.09      15.24       7.31
H      27.27      16.30       8.30
H      25.48      19.33       9.00
H      25.50      21.71       9.00
H      23.62      19.33      12.79
H      23.61      21.71      12.78
H      21.84      16.30      13.48
H      20.01      15.23      14.47
H      20.71      11.82      12.08
H      22.41      12.98      10.94
H      24.55      13.78      10.89
H      26.49      17.42      10.13
H      22.61      17.42      11.66
H      16.66       2.62      32.60
H      56.20       5.01      32.58
H      52.22       2.62      31.18
H      52.21       5.01      31.21
H      54.56       5.73      29.23
H      54.55       7.52      27.44
H      54.00       9.34      31.06
H      53.99      11.01      32.73
H      53.91       5.68      34.59
H      53.91       7.48      36.39
H      56.24       9.60      37.06
H      56.24       9.61      39.45
H      52.17      10.74      37.05
H      52.17      10.75      39.45
H      54.56      12.83      36.34
H      54.56      14.62      34.55
H      53.91      12.87      27.39
H      53.90      14.67      29.19
H      52.21      15.34      32.57
H      52.22      17.72      32.61
H      56.20      15.34      31.20
H      56.20      17.73      31.19
H      56.24      10.75      26.73
H      16.70      10.73      24.33
H      52.17       9.60      24.34
H      52.17       9.61      26.73
H      26.55      31.88      18.44
H      26.55      31.86      16.05
H      62.10      30.47      18.44
H      22.56      30.50      16.05
H      24.90      28.52      15.33
H      24.90      26.73      13.54
H      24.35      30.34      11.72
H      24.35      32.02      10.05
H      24.26      33.88      15.38
H      24.26      35.68      13.58
H      26.58      36.34      11.46
H      26.59      38.74      11.44
H      22.52      36.34      10.32
H      62.05      38.74      10.32
H      24.90      35.63       8.23
H      24.90      33.84       6.44
H      24.26      26.68       8.19
H      24.26      28.48       6.39
H      22.56      31.86       5.72
H      22.56      31.89       3.34
H      26.55      30.50       5.72
H      26.55      30.48       3.33
H      26.58      26.02      10.32
H      26.59      23.62      10.33
H      22.52      23.62      11.46
H      22.52      26.02      11.45
H      69.01      32.39      33.56
H      31.18      31.25      34.71
H      68.34      34.80      36.96
H      70.18      33.82      38.01
H      70.91      30.36      41.03
H      51.15      30.36       1.40
H      35.27      32.01      41.03
H      55.03      32.02       1.40
H      36.00      28.54      38.01
H      37.84      27.57      36.96
H      37.18      29.98      33.56
H      35.47      31.12      34.71
H      33.32      31.18      35.51
H      70.96      32.04      39.15
H      35.22      30.33      39.15
H      49.24      29.97      30.22
H      50.95      31.11      29.07
H      48.57      27.56      26.82
H      50.41      28.54      25.77
H      51.15      32.00      22.75
H      51.15      32.00      20.37
H      55.04      30.35      22.75
H      55.03      30.35      20.38
H      55.77      33.82      25.77
H      57.60      34.80      26.82
H      56.95      32.38      30.22
H      55.24      31.24      29.07
H      53.09      31.18      28.27
H      51.19      30.32      24.63
H      54.99      32.03      24.63
H      59.12      32.85      30.69
H      60.83      34.00      31.82
H      58.46      36.25      28.27
H      60.29      37.30      29.25
H      61.03      40.32      32.70
H      41.26       0.68      32.71
H      64.92      40.32      31.07
H      45.15       0.68      31.06
H      65.65      37.30      34.53
H      67.49      36.25      35.51
H      66.83      32.85      33.09
H      65.12      34.00      31.95
H      62.98      34.80      31.89
H      61.08      38.44      31.03
H      64.87      38.44      32.74
H      39.36      29.51      33.09
H      41.07      28.36      31.96
H      38.69      26.11      35.51
H      40.53      25.06      34.54
H      41.26      22.04      31.08
H      41.26      19.66      31.07
H      45.15      22.04      32.71
H      45.15      19.66      32.72
H      45.89      25.06      29.25
H      47.72      26.11      28.28
H      47.06      29.51      30.69
H      45.35      28.36      31.83
H      43.21      27.56      31.89
H      41.31      23.92      32.75
H      45.11      23.92      31.04
H      27.28       8.98       9.24
H      25.57      10.12       8.09
H      27.98       6.60       5.82
H      26.15       7.59       4.76
H      24.37       8.28       1.73
H      44.15       8.29      41.37
H      22.51      12.08       1.74
H      42.26      12.07      41.37
H      20.72      12.77       4.76
H      18.90      13.76       5.83
H      19.59      11.37       9.24
H      21.30      10.23       8.08
H      23.44      10.18       7.28
H      25.38       9.41       3.64
H      21.50      10.95       3.64
H      47.05      11.37      12.53
H      45.34      10.23      13.69
H      47.74      13.75      15.95
H      45.92      12.76      17.01
H      44.13      12.07      20.04
H      44.15      12.06      22.42
H      42.28       8.27      20.04
H      42.26       8.28      22.42
H      40.49       7.58      17.01
H      38.66       6.59      15.95
H      39.36       8.98      12.53
H      41.06      10.12      13.69
H      43.20      10.17      14.50
H      45.14      10.94      18.13
H      41.27       9.40      18.13
H      37.16       8.53      12.08
H      35.46       7.37      10.94
H      37.86       5.11      14.46
H      36.04       4.05      13.48
H      34.25       1.02      12.78
H      54.03      40.66      12.77
H      32.39       1.02       8.99
H      52.15      40.66       8.99
H      30.60       4.05       8.29
H      28.78       5.12       7.30
H      29.48       8.53       9.69
H      31.18       7.37      10.83
H      33.32       6.56      10.88
H      35.26       2.93      11.65
H      31.38       2.93      10.12
H      17.40      11.82       9.69
H      15.69      12.98      10.83
H      18.09      15.24       7.31
H      16.27      16.30       8.30
H      14.48      19.33       9.00
H      14.50      21.71       9.00
H      52.16      19.33      12.79
H      52.14      21.71      12.78
H      50.37      16.30      13.48
H      48.55      15.23      14.47
H      49.24      11.82      12.08
H      11.41      12.98      10.94
H      13.55      13.78      10.89
H      15.49      17.42      10.13
H      51.15      17.42      11.66
H      45.20       2.62      32.60
H      45.20       5.01      32.58
H      41.22       2.62      31.18
H      41.21       5.01      31.21
H      43.56       5.73      29.23
H      43.55       7.52      27.44
H      43.00       9.34      31.06
H      42.99      11.01      32.73
H      42.91       5.68      34.59
H      42.91       7.48      36.39
H      45.24       9.60      37.06
H      45.24       9.61      39.45
H      41.17      10.74      37.05
H      41.17      10.75      39.45
H      43.56      12.83      36.34
H      43.56      14.62      34.55
H      42.91      12.87      27.39
H      42.90      14.67      29.19
H      41.21      15.34      32.57
H      41.22      17.72      32.61
H      45.20      15.34      31.20
H      45.20      17.73      31.19
H      45.24      10.75      26.73
H      45.24      10.73      24.33
H      41.17       9.60      24.34
H      41.17       9.61      26.73
H      55.08      31.88      18.44
H      55.09      31.86      16.05
H      51.10      30.47      18.44
H      51.09      30.50      16.05
H      53.44      28.52      15.33
H      53.43      26.73      13.54
H      52.88      30.34      11.72
H      52.88      32.02      10.05
H      52.80      33.88      15.38
H      52.80      35.68      13.58
H      55.12      36.34      11.46
H      55.13      38.74      11.44
H      51.06      36.34      10.32
H      51.05      38.74      10.32
H      53.43      35.63       8.23
H      53.44      33.84       6.44
H      52.80      26.68       8.19
H      52.80      28.48       6.39
H      51.09      31.86       5.72
H      51.10      31.89       3.34
H      55.09      30.50       5.72
H      55.08      30.48       3.33
H      55.12      26.02      10.32
H      55.13      23.62      10.33
H      51.05      23.62      11.46
H      51.06      26.02      11.45
N      54.18       8.67      30.39
N      54.22       8.64      33.43
N      54.18      11.68      33.39
N      54.22      11.71      30.35
N      24.53      29.68      12.39
N      24.56      32.72      12.42
N      24.53      32.68       9.38
N      24.56      29.64       9.35
N      43.18       8.67      30.39
N      43.22       8.64      33.43
N      43.18      11.68      33.39
N      43.22      11.71      30.35
N      53.07      29.68      12.39
N      53.10      32.72      12.42
N      53.06      32.68       9.38
N      53.10      29.64       9.35
