11

Cd       3.17       4.56       9.76
O       1.62       5.82       8.45
C       2.42       5.97       7.44
C       2.49       3.03      12.01
C       3.91       6.69      12.20
C       2.06       7.31      10.94
N       3.16       6.54      11.07
N       3.55       2.61       8.55
C       4.64       1.84       8.73
C       2.76       2.40       7.47
O       1.69       3.15      11.01
