22

C       4.63       1.08       9.40
C       4.58       3.51       9.20
C       2.68       2.17       8.45
C       2.50       3.57      10.37
C       2.52       1.18      10.60
C       4.42       2.52      11.35
H       4.32       0.15       8.91
H       5.72       1.10       9.49
H       5.67       3.55       9.28
H       4.23       4.33       8.55
H       2.41       1.22       7.98
H       2.36       2.99       7.80
H       2.03       3.68      11.35
H       2.17       4.39       9.73
H       2.09       1.26      11.60
H       2.22       0.23      10.14
H       5.51       2.54      11.45
H       3.95       2.59      12.34
N       4.19       2.22       8.54
N       3.97       3.63      10.51
N       2.07       2.29       9.76
N       4.02       1.18      10.76
