22

C       4.76      15.21      22.42
C       4.81      12.78      22.21
C       6.71      14.12      21.46
C       6.89      12.72      23.39
C       6.87      15.11      23.61
C       4.97      13.77      24.37
H       5.07      16.14      21.93
H       3.66      15.19      22.51
H       3.72      12.74      22.29
H       5.15      11.96      21.57
H       6.98      15.07      20.99
H       7.03      13.30      20.82
H       7.35      12.61      24.37
H       7.22      11.90      22.75
H       7.30      15.03      24.62
H       7.16      16.06      23.15
H       3.88      13.75      24.47
H       5.43      13.70      25.36
N       5.20      14.07      21.56
N       5.42      12.66      23.53
N       7.31      14.00      22.78
N       5.36      15.11      23.78
