24

O       2.10       8.04      15.58
O       4.29      14.13      13.78
O       8.05       8.35      15.19
O       1.69       9.03      13.57
O       7.51       8.62      12.99
O       5.10      13.04      12.01
C       2.35       8.87      14.66
C       3.60       9.74      14.83
C       4.84       8.88      14.47
C       6.14       9.69      14.63
C       6.11      10.97      13.78
C       4.88      11.83      14.12
C       3.57      11.02      13.99
C       7.33       8.82      14.26
C       4.78      13.05      13.21
H       3.67      10.00      15.90
H       4.76       8.52      13.44
H       4.87       7.99      15.12
H       6.25       9.96      15.69
H       7.02      11.56      13.95
H       6.09      10.71      12.71
H       4.96      12.17      15.15
H       2.73      11.65      14.28
H       3.44      10.74      12.93
