24

O       3.07       2.64       3.52
O      -0.46       8.62       5.02
O      -3.10       3.13       3.68
O       3.10       3.33       5.69
O      -2.63       3.36       5.90
O       0.75       7.79       6.71
C       2.63       3.33       4.50
C       1.42       4.21       4.26
C       0.13       3.43       4.59
C      -1.12       4.30       4.31
C      -2.39       3.53       4.64
C      -1.06       5.61       5.10
C       0.25       6.36       4.80
C       1.47       5.50       5.09
C       0.23       7.65       5.58
H       1.41       4.46       3.19
H       0.13       3.14       5.65
H       0.08       2.51       3.99
H      -1.16       4.52       3.23
H      -1.92       6.25       4.84
H      -1.14       5.39       6.17
H       0.25       6.63       3.74
H       2.39       6.07       4.87
H       1.51       5.26       6.16
