26

Ca      10.35       0.95       6.44
O       9.46       0.11       8.59
O      11.09      -2.23       7.49
O      10.75      -2.35       9.67
Zn       9.28       1.85       9.80
Ca      11.96      -0.95      11.05
Zn      13.03      -1.85       7.70
C      12.99      -0.93       5.10
C      14.15      -3.25       9.87
C      11.95       2.39       8.99
C      14.01       0.32       8.59
C       9.33       0.93      12.39
C       8.16       3.25       7.62
C      10.36      -2.39       8.50
C       8.30      -0.32       8.90
O      13.41      -1.92       5.76
O      12.29      -0.01       5.57
O      13.91      -3.33       8.63
O      13.85      -2.29      10.61
O      12.85      -0.11       8.91
O      11.56       2.35       7.82
O      11.22       2.23      10.00
O       8.90       1.92      11.74
O      10.03       0.01      11.93
O       8.41       3.33       8.86
O       8.46       2.29       6.88
