26

Ca       4.99       5.42      15.19
Ca       3.38       7.32      19.80
Zn       6.06       4.52      18.54
Zn       2.31       8.22      16.45
C       1.19       9.62      18.62
C       3.39       3.98      17.74
C       1.33       6.05      17.34
C       2.36       7.30      13.85
C       7.18       3.12      16.37
C       4.98       8.76      17.25
C       7.04       6.69      17.65
C       6.02       5.44      21.14
O       1.44       9.70      17.38
O       1.49       8.66      19.36
O       2.49       6.48      17.65
O       3.78       4.03      16.57
O       4.12       4.14      18.75
O       1.93       8.29      14.51
O       3.06       6.38      14.32
O       6.94       3.04      17.61
O       6.88       4.08      15.63
O       5.88       6.26      17.33
O       4.59       8.72      18.42
O       4.25       8.60      16.24
O       6.44       4.45      20.48
O       5.32       6.36      20.67
