174

C       6.76      13.56      17.88
C       7.75      -7.82      17.85
C       6.51      -6.57      16.07
C       5.48      -7.55      16.05
C       4.43      -7.36      15.10
C       4.40      -6.24      14.23
C       5.46      -5.30      14.29
C       6.49      -5.46      15.21
C       8.86      -7.85      18.71
C       9.01      -8.88      19.63
C       8.07      12.47      19.69
C       6.95      12.51      18.83
C       4.31      -8.71      17.87
C       3.33      12.66      17.84
C       4.57      11.42      16.07
C       5.60      12.40      16.05
C       4.59      10.31      15.21
C       5.63      10.15      14.29
C       6.68      11.08      14.23
C       6.65      12.21      15.10
C       4.13      -7.66      18.83
C       3.00      -7.63      19.69
C       2.06      -8.67      19.62
C       2.21      12.69      18.71
C       5.54      13.62      16.96
C       3.40      11.50      16.95
C       7.68      -6.65      16.96
C       8.25      11.50      20.72
C       3.43      -6.05      13.21
C       7.66      10.89      13.22
C       2.82      -6.66      20.71
C       6.76       2.51       4.70
C       7.80       1.55       4.80
C       6.41       0.16       6.42
C       5.46       1.21       6.51
C       4.27       0.96       7.25
C       3.90      -0.33       7.70
C       4.89      -1.34       7.63
C       6.14      -1.08       7.04
C       9.04       1.82       4.18
C       9.31       3.07       3.59
C       8.30       4.06       3.52
C       7.01       3.70       3.97
C       4.32       2.35       4.70
C       3.28       3.30       4.80
C       4.67       4.69       6.42
C       5.62       3.64       6.51
C       4.94       5.93       7.05
C       6.19       6.19       7.63
C       7.18       5.18       7.71
C       6.81       3.88       7.26
C       4.08       1.16       3.96
C       2.78       0.80       3.52
C       1.77       1.78       3.59
C       2.04       3.04       4.17
C       5.54       2.43       5.61
C       3.43       4.54       5.61
C       7.65       0.31       5.61
C       8.61       5.45       3.33
C       2.52      -0.64       7.90
C       8.56       5.48       7.90
C       2.47      -0.59       3.32
C      10.21      10.90      22.06
C     -10.85      11.37      22.14
C       1.09      -0.02       0.63
C       0.55      -0.69       1.75
C      -0.79      21.25       1.67
C      20.85      21.46       0.49
C       0.87      -6.05      22.05
C      -0.47      -6.53      22.15
C       9.98       4.87       0.64
C      10.53       5.55       1.75
C      11.87       6.00       1.67
C      12.62       5.79       0.49
C       8.26       8.94      11.88
C       7.78       7.60      11.78
C       7.98       6.86      10.59
C       8.67       7.40       9.49
C       9.13       8.74       9.57
C       8.92       9.49      10.75
C       2.82      -4.09      11.87
C       3.31      -2.75      11.77
C       3.11      -2.01      10.58
C       2.42      -2.55       9.48
C       1.95      -3.89       9.57
C       2.17      -4.64      10.75
H       1.27      -8.72      20.27
H       1.51      11.94      18.69
H       3.84       9.61      15.21
H       5.58       9.36      13.65
H       7.40      12.90      15.03
H       4.83      -6.92      18.90
H       3.68      14.35      15.03
H       5.50      -4.51      13.65
H       7.24      -4.77      15.22
H       6.25      11.77      18.90
H       9.56      -7.10      18.70
H       9.80      -8.84      20.28
H       3.39      10.60      17.58
H       2.50      11.50      16.33
H       8.58      -6.65      16.34
H       7.69      -5.75      17.58
H       0.81       1.57       3.32
H       1.26       3.70       4.27
H       4.27       6.70       6.95
H       6.41       7.15       7.90
H       7.52       3.15       7.28
H       4.81       0.45       3.94
H       3.56       1.70       7.27
H       4.67      -2.30       7.89
H       6.81      -1.85       6.94
H       6.27       4.41       3.95
H       9.82       1.15       4.27
H      10.27       3.29       3.33
H       3.36       5.39       4.92
H       2.58       4.61       6.30
H       8.49       0.24       6.30
H       7.72      -0.53       4.91
H       2.08       0.26       0.65
H      19.91      21.06       0.43
H      10.05      10.94      20.06
H       1.25      20.29       2.94
H       9.00       4.59       0.65
H      13.57       6.19       0.43
H       1.02      -6.09      20.05
H       9.83       6.96       2.94
H       7.69       5.88      10.57
H       9.32      10.43      10.82
H       8.21       9.09      13.87
H      10.08       6.69       8.30
H       3.39      -1.03      10.56
H       1.77      16.82      10.81
H       2.89      -4.24      13.87
H       1.00      -1.85       8.29
N      -1.35      20.57       2.78
N     -10.27      12.02      21.03
N       9.51      10.98      20.87
N       1.37      -1.16       2.75
N      12.43       6.69       2.77
N      -1.06      -7.18      21.03
N       1.56      -6.13      20.87
N       9.71       6.01       2.75
N       9.83       9.30       8.47
N       7.11       7.02      12.89
N       8.17       9.63      13.06
N       9.13       6.58       8.48
N       1.26      17.95       8.47
N       3.97      -2.17      12.88
N       2.92      -4.79      13.06
N       1.95      -1.74       8.48
O       3.61      15.55      12.14
O       7.46     -10.70      21.79
O       7.47      11.69      12.14
O       3.61      -6.86      21.79
O       1.65       0.08       7.14
O       7.89       6.31       4.09
O       9.43       4.76       7.15
O       3.19      -1.46       4.08
O      20.05      -1.22       3.23
O      -9.27      11.39      20.59
O      -9.91      -9.21      21.30
O      20.71      19.40       2.48
O      13.44       6.08       3.23
O      -2.06      -6.54      20.60
O      -1.42      -8.35      21.31
O      12.77       7.86       2.47
O       9.23      10.31       8.02
O       7.73       6.01      13.32
O       5.94       6.67      12.59
O      11.00       9.63       8.79
O       1.85      16.94       8.01
O       3.35      -1.17      13.31
O       5.14      -1.82      12.58
O       0.09      17.62       8.79
