18

C       6.50       1.32       1.59
C       6.95       2.60       2.22
C       6.33       3.79       1.79
C       6.78       5.03       2.25
C       7.81       5.08       3.19
C       8.42       3.91       3.64
C       8.00       2.66       3.16
C       9.57       4.07       4.58
H       5.55       3.74       1.04
C       6.20       6.30       1.75
H       8.49       1.76       3.50
H       8.16       6.04       3.55
O       5.29       1.22       1.20
O       7.40       0.41       1.48
O       9.97       5.27       4.83
O      10.15       3.06       5.09
O       6.80       7.38       1.86
O       5.02       6.16       1.21
