18

C       6.94      15.70      14.28
C       6.32      14.52      13.85
C       6.77      13.28      14.32
C       7.80      13.22      15.25
O       5.28      17.08      13.27
O       7.39      17.89      13.54
O       9.96      13.03      16.89
O      10.14      15.25      17.15
H       5.54      14.57      13.11
O       5.01      12.14      13.27
H       8.15      12.26      15.61
H       8.48      16.55      15.56
O       6.79      10.92      13.93
C       6.49      16.98      13.65
C       8.41      14.39      15.71
C       7.99      15.64      15.22
C       9.56      14.23      16.64
C       6.19      12.00      13.82
