220

Zn       3.58      10.04      17.33
Zn       3.06       3.36      17.33
Zn       9.69       3.35       5.78
Zn      10.22      10.02       5.78
Zn       9.96       0.03       6.83
Zn       9.96       6.66       4.72
Zn       3.32      13.35      16.27
Zn       3.32       6.73      18.38
Si       9.96       6.69      12.46
Si       9.96       0.04      22.19
Si       3.31       6.69      10.64
Si       3.31      13.35       0.91
H       8.13       4.22      12.16
H       8.11       2.39      10.48
H      11.48       4.16       8.48
H      11.56       5.95      10.18
H       8.55       4.95      14.48
H       6.64       5.35      16.02
H       6.23       9.34      14.50
H       8.10       8.94      12.90
H      11.80       9.17      12.15
H      11.79      11.02      10.48
H       8.43       9.22       8.48
H       8.37       7.42      10.17
H      11.38       8.45      14.47
H       0.00       8.04      16.02
H       0.42       4.06      14.50
H      11.84       4.45      12.90
H      11.80      10.91      22.50
H      11.79       9.03       1.07
H       8.43      10.82       3.07
H       8.37      12.62       1.38
H      11.38      11.63      20.18
H       0.00      12.04      18.63
H       0.42       2.67      20.15
H      11.84       2.28      21.75
H       8.13       2.51      22.49
H       8.11       4.31       1.07
H      11.48       2.54       3.07
H      11.56       0.74       1.37
H       8.55       1.78      20.17
H       6.64       1.37      18.63
H       6.23      10.74      20.16
H       8.10      11.14      21.75
H       5.15       9.16      10.94
H       5.17      11.00      12.62
H       1.80       9.23      14.62
H       1.72       7.44      12.92
H       4.73       8.44       8.62
H       6.63       8.03       7.08
H       7.04       4.04       8.61
H       5.18       4.45      10.20
H       1.48       4.22      10.95
H       1.48       2.37      12.62
H       4.84       4.16      14.62
H       4.90       5.96      12.93
H       1.90       4.94       8.63
H      13.27       5.34       7.08
H      12.85       9.33       8.60
H       1.44       8.94      10.20
H       1.48       2.48       0.60
H       1.48       4.36      22.03
H       4.84       2.57      20.03
H       4.90       0.77      21.72
H       1.90       1.75       2.92
H      13.27       1.35       4.47
H      12.85      10.72       2.95
H       1.44      11.11       1.35
H       5.15      10.88       0.61
H       5.17       9.08      22.03
H       1.80      10.85      20.03
H       1.72      12.64      21.73
H       4.73      11.61       2.93
H       6.63      12.01       4.47
H       7.04       2.65       2.94
H       5.18       2.25       1.35
C       9.85       5.22      11.30
C       8.88       4.20      11.37
C       8.85       3.17      10.43
C       9.78       3.17       9.37
C      10.76       4.17       9.30
C      10.80       5.17      10.26
C       9.71       2.12       8.33
C       8.46       6.91      13.56
C       8.03       5.91      14.45
C       6.97       6.13      15.33
C       6.32       7.37      15.35
C       6.74       8.38      14.47
C       7.78       8.15      13.58
C       5.20       7.65      16.30
C      10.08       8.17      11.30
C      11.04       9.19      11.37
C      11.05      10.22      10.43
C      10.13      10.22       9.37
C       9.15       9.21       9.30
C       9.13       8.21      10.25
C      10.17      11.28       8.34
C      11.47       6.48      13.56
C      11.89       7.49      14.45
C      12.96       7.27      15.33
C       0.33       6.03      15.35
C      13.19       5.02      14.47
C      12.14       5.25      13.58
C       1.44       5.75      16.31
C      10.08      11.88       0.25
C      11.04      10.86       0.18
C      11.05       9.82       1.12
C      10.13       9.82       2.18
C       9.15      10.83       2.25
C       9.13      11.84       1.30
C      10.17       8.76       3.21
C      11.47       0.25      21.09
C      11.89      12.59      20.20
C      12.96      12.81      19.32
C       0.33       0.70      19.30
C      13.19       1.71      20.18
C      12.14       1.48      21.07
C       1.44       0.98      18.34
C       9.85       1.48       0.25
C       8.88       2.49       0.18
C       8.85       3.52       1.12
C       9.78       3.52       2.18
C      10.76       2.52       2.25
C      10.80       1.52       1.29
C       9.71       4.57       3.22
C       8.46      13.17      21.09
C       8.03       0.82      20.20
C       6.97       0.60      19.32
C       6.32      12.71      19.30
C       6.74      11.70      20.18
C       7.78      11.93      21.07
C       5.20      12.43      18.35
C       3.42       8.17      11.80
C       4.39       9.19      11.73
C       4.42      10.21      12.67
C       3.50      10.22      13.73
C       2.52       9.22      13.80
C       2.48       8.21      12.84
C       3.57      11.26      14.77
C       4.82       6.47       9.54
C       5.25       7.48       8.65
C       6.31       7.26       7.77
C       6.96       6.01       7.75
C       6.54       5.01       8.63
C       5.49       5.24       9.52
C       8.07       5.73       6.80
C       3.20       5.22      11.80
C       2.24       4.20      11.73
C       2.22       3.17      12.67
C       3.15       3.16      13.73
C       4.12       4.17      13.80
C       4.15       5.18      12.85
C       3.10       2.11      14.76
C       1.81       6.91       9.54
C       1.38       5.90       8.65
C       0.32       6.12       7.77
C      12.95       7.36       7.75
C       0.08       8.37       8.63
C       1.13       8.14       9.52
C      11.83       7.63       6.79
C       3.20       1.51      22.85
C       2.24       2.53      22.92
C       2.22       3.56      21.98
C       3.15       3.56      20.92
C       4.12       2.55      20.85
C       4.15       1.55      21.80
C       3.10       4.62      19.89
C       1.81      13.14       2.01
C       1.38       0.80       2.90
C       0.32       0.58       3.78
C      12.95      12.68       3.80
C       0.08      11.67       2.92
C       1.13      11.90       2.03
C      11.83      12.41       4.76
C       3.42      11.91      22.85
C       4.39      10.89      22.92
C       4.42       9.87      21.98
C       3.50       9.86      20.92
C       2.52      10.86      20.85
C       2.48      11.87      21.81
C       3.57       8.82      19.88
C       4.82       0.22       2.01
C       5.25      12.57       2.90
C       6.31      12.79       3.78
C       6.96       0.68       3.80
C       6.54       1.69       2.92
C       5.49       1.45       2.03
C       8.07       0.96       4.75
O      10.47       2.24       7.25
O       8.99       1.10       8.45
O       4.70       8.83      16.25
O       4.84       6.71      17.08
O       9.46      11.14       7.24
O      10.84      12.34       8.51
O       1.94       4.57      16.26
O       1.81       6.70      17.08
O       9.46       8.91       4.31
O      10.84       7.71       3.04
O       1.94       2.16      18.39
O       1.81       0.03      17.57
O      10.47       4.45       4.30
O       8.99       5.59       3.10
O       4.70      11.25      18.40
O       4.84      13.37      17.57
O       2.81      11.14      15.85
O       4.29      12.29      14.65
O       8.57       4.55       6.85
O       8.44       6.68       6.02
O       3.82       2.25      15.86
O       2.44       1.05      14.59
O      11.34       8.82       6.84
O      11.47       6.69       6.02
O       3.82       4.48      18.79
O       2.44       5.68      20.06
O      11.34      11.23       4.71
O      11.47      13.36       5.53
O       2.81       8.94      18.80
O       4.29       7.79      20.00
O       8.57       2.14       4.70
O       8.44       0.02       5.53
