66

O       5.54      18.30      22.15
O       4.96      19.80      20.55
O       1.71      23.29      25.66
O       2.29      21.78      27.26
H       2.10      16.19      21.40
H       0.45      16.64      22.00
H       0.89      16.93      20.28
H       0.98      19.06      21.48
H       2.63      18.57      20.98
H       2.96      17.57      23.33
H       1.37      18.24      23.79
H       6.80      24.95      25.80
H       5.15      25.40      26.41
H       6.36      24.66      27.53
H       4.62      23.02      26.82
H       6.27      22.53      26.33
H       5.88      23.34      24.01
H       4.29      24.02      24.48
H       5.44      19.17      19.91
H       1.81      22.41      27.89
H      -0.84      21.69      20.89
H      -0.74      23.38      21.58
H      -0.13      23.03      19.92
H       1.57      23.32      21.65
H       1.66      21.69      20.79
H       0.38      20.75      22.80
H       0.60      22.33      23.60
H       7.99      18.21      26.22
H       8.09      19.89      26.92
H       7.38      18.55      27.88
H       5.59      19.90      27.02
H       5.68      18.27      26.15
H       6.65      19.26      24.21
H       6.86      20.84      25.01
C       3.97      24.35      19.74
C       3.28      17.24      28.06
C       4.32      20.16      22.95
C       2.93      21.43      24.86
C       2.94      19.71      23.50
C       4.31      21.88      24.30
C       3.28      18.20      26.98
C       3.97      23.38      20.82
C       4.82      20.41      24.40
C       2.43      21.18      23.41
C       3.44      19.97      24.95
C       3.81      21.62      22.86
C       3.29      19.01      26.07
C       3.96      22.58      21.73
C       2.24      18.39      23.13
C       1.79      18.33      21.66
C       1.27      16.93      21.32
C       5.01      23.19      24.68
C       5.46      23.26      26.14
C       5.98      24.66      26.49
C       5.01      19.37      21.87
C       2.24      22.22      25.93
C       1.05      21.63      22.88
C       1.11      22.32      21.52
C      -0.25      22.62      20.94
C       6.20      19.96      24.93
C       6.14      19.26      26.29
C       7.50      18.97      26.86
O       4.46      16.77      28.50
O       2.79      24.82      19.31
O       5.18      24.66      19.30
O       2.07      16.93      28.51
