696

Zn       2.09      10.50       3.73
Zn       4.06      13.03       2.74
Zn       1.53      13.56       4.30
Zn      -0.50      10.97       5.19
Zn       2.93      11.48      16.74
Zn       1.69       8.62      18.17
Zn       0.03      10.28      16.20
Zn       1.08      13.42      15.36
Zn       9.52      17.31      10.84
Zn      15.13       0.67       8.05
Zn       0.46       1.14      10.15
Zn       0.21      -0.29      13.22
Zn       9.11       5.25      22.81
Zn       7.44       2.92      21.01
Zn       9.68       2.17      22.89
Zn      11.39       4.52      24.63
Zn       9.97       2.36      34.59
Zn      11.34       5.02      33.05
Zn       9.01       5.34      34.89
Zn       7.33       2.64      36.07
Zn      -4.12      16.99      29.07
Zn      -4.22      15.23      26.24
Zn      10.93      14.45      28.70
Zn      -5.19      15.83      31.74
H       1.65      12.56       1.97
H       1.83      11.48       6.02
H       0.85      10.98      18.39
H       1.91      11.20      14.45
H      14.77       1.45      10.47
H      -4.83      17.27      11.03
H       9.94       3.55      20.84
H       8.96       3.87      24.89
H       8.99       4.12      32.70
H       9.61       3.53      36.80
H      -3.32      14.42      28.52
H      -6.49      16.70      29.73
H       7.29      -1.01      33.81
H       3.81       0.62      30.67
H      -2.22      14.08      35.82
H      -0.60      12.29      35.25
H       1.11      12.67      33.49
H       1.22      14.84      32.31
H      -2.11      16.26      34.65
H       3.73       3.05      31.93
H       3.87       5.37      31.08
H       7.59       2.20      30.21
H       7.70       4.51      29.34
H       5.87       6.11      29.81
H      11.53      12.10      33.74
H       8.74       8.80      31.28
H      10.48      10.43       0.96
H      12.56      11.33       1.95
H      -2.40      12.16       0.48
H      -3.78      10.71      35.11
H       9.05       9.04      35.59
H       7.39      12.50      32.21
H       5.51      13.36      30.85
H       8.90      10.39      28.77
H       7.03      11.28      27.41
H       5.33      12.76      28.45
H      15.05      -0.06      30.40
H      -1.64       2.85      34.40
H       5.69      15.32      32.40
H       3.72      16.27      31.23
H       9.59       0.08      30.40
H      11.60       1.48      30.76
H       7.72      16.70      32.72
H       0.36       4.31      32.38
H       2.18       5.56      33.47
H       1.49       0.78      34.57
H       3.35       2.03      35.61
H       3.64       4.44      35.13
H      12.58       8.65      24.68
H       8.72      11.58      25.78
H      -1.82      13.02      22.52
H      -0.03      12.80      24.22
H      -0.47      11.58      26.34
H      -2.69      10.59      26.76
H      -4.05      12.03      22.93
H       7.14       9.94      23.79
H       4.80       9.77      24.58
H       8.50       8.07      27.43
H       6.15       7.87      28.19
H       4.31       8.77      26.80
H       7.28      -0.03      25.73
H       2.74       1.98      25.91
H      -0.08      13.83      27.63
H       1.06      14.39      29.75
H       1.46      16.76      30.36
H       6.48       0.04      28.88
H      -0.80      15.63      26.09
H       6.38       4.30      25.75
H       6.18       6.61      24.91
H       2.70       3.29      23.74
H       2.36       5.68      23.21
H       4.11       7.34      23.75
H      13.82      -0.66      28.12
H      13.15      -0.54      23.19
H      12.68       4.09      29.24
H      10.20       4.09      29.27
H       8.95       2.30      28.08
H      10.17       0.52      26.87
H      13.92       2.32      28.02
H       7.43      14.36      24.65
H       8.44      12.58      23.25
H      10.34      17.17      23.14
H      -5.45      15.38      21.76
H      10.38      13.09      21.80
H      13.12       8.88      18.57
H      14.04       4.58      20.88
H      10.33      10.65      22.65
H       8.59      11.09      20.95
H       8.58       9.82      18.83
H      10.29       8.08      18.42
H      12.08       8.95      22.23
H      -0.78       5.25      17.29
H       1.41       4.15      17.03
H      -0.17       5.45      21.55
H       2.00       4.29      21.28
H       2.81       3.69      19.02
H       0.84      16.02      17.61
H       3.98      16.53      21.42
H       4.31       1.95      17.87
H       5.52       2.64      15.82
H       7.72       1.64      15.28
H       8.76       0.02      16.83
H       5.28       0.23      19.36
H       2.85      13.77      22.30
H       4.47      12.16      23.27
H       5.40      14.22      18.85
H       6.98      12.57      19.82
H       6.50      11.53      22.02
H       5.57       7.92      21.88
H       6.80       8.14      17.10
H       0.97       7.80      22.17
H       0.27      10.18      22.03
H       1.67      11.81      20.79
H       3.82      11.09      19.78
H       3.07       7.06      21.09
H       6.36       5.65      16.65
H       7.82       4.14      15.36
H       9.39       5.93      19.70
H      10.74       4.25      18.50
H       9.95       3.35      16.33
H      -3.83      14.47      11.55
H      -4.29      12.19      15.93
H       0.93      15.42      11.37
H       1.93      13.29      10.60
H       0.73      11.15      10.94
H      -1.50      11.14      12.03
H      -1.30      15.42      12.47
H       9.99      11.08      14.60
H       7.88      10.78      15.86
H      10.07      15.23      15.78
H       7.93      14.93      16.97
H       6.84      12.71      17.03
H      -1.57       3.95      13.58
H       2.57       6.70      13.66
H      12.19       5.42      16.74
H      11.46       7.72      16.19
H      12.87       9.15      14.73
H      -1.80       8.28      13.81
H      14.29       4.52      15.82
H       3.68       3.42      14.21
H       5.78       2.64      13.15
H       2.47       5.21      10.47
H       4.57       4.41       9.42
H       6.22       3.12      10.76
H       7.41      15.09      12.33
H       4.73      16.35      16.32
H       3.39      11.06      11.70
H       5.39       9.66      11.32
H       7.63      10.48      11.99
H       7.87      12.70      13.04
H       3.61      13.28      12.75
H      11.70       0.92      14.02
H      12.18       3.06      15.16
H       7.23      17.31      17.51
H      13.45       0.93      18.67
H      13.02       3.07      17.50
H       4.08      16.35      36.27
H       2.06      18.16       3.03
H       5.86      12.12      35.94
H       3.94      10.65      35.36
H       1.67      11.23      36.13
H       2.35      14.81       0.16
H       6.58      15.67       0.06
H       9.44       2.85       2.94
H       7.89       4.70       3.53
H       6.40       1.13       0.42
H       4.87       2.98       1.01
H       5.60       4.75       2.59
H      -2.55       8.94       3.01
H      -2.86       6.95      35.22
H      11.92       3.90       2.64
H      10.29       4.97       4.16
H      10.07       7.43       4.22
H      11.48       8.84       2.77
H      13.41       5.30       1.24
H       1.40       7.96       0.18
H       2.19       6.81      35.70
H      -1.66       9.92      35.44
H       0.26      10.19      33.90
H       2.18       8.64      34.03
H       7.37       6.56       1.74
H       3.54       8.86      36.99
H       7.75       7.50       6.43
H       5.66       6.50       7.31
H       3.68       6.28       5.83
H       3.78       7.07       3.49
H       7.87       8.27       4.08
H       6.65       9.49      36.09
H       7.20      10.50      33.90
H       4.17       6.58      34.10
H       4.69       7.63      31.93
H       6.20       9.59      31.82
H      -2.02      17.99       7.62
H      -3.82      13.79       5.69
H       2.43      18.14       5.30
H       3.55      17.54       7.41
H       2.33      16.23       9.13
H       0.04      15.43       8.70
H       0.10      17.41       4.87
H      -4.74      15.16       9.64
H      10.65      13.37      10.64
H      10.51      14.15       5.75
H       9.14      12.36       6.77
H       9.16      12.01       9.22
H       0.81       3.50       5.19
H      -0.30       7.72       7.57
H      -0.95       6.06       0.70
H       0.02       3.73      36.80
H       3.03       4.53       1.19
H       2.82       4.75       3.65
H      -1.13       6.40       3.15
H      14.17       4.29       8.23
H      12.77       4.58      10.24
H       0.39       6.85       9.98
H      -1.12       7.30      11.87
H      13.48       6.12      12.05
H       8.28      15.31       6.25
H       3.82      14.42       8.22
H       8.00      14.43       1.68
H       8.58      12.02       1.65
H       8.14      10.62       3.64
H       7.05      11.59       5.63
H       6.92      15.43       3.67
H       4.49      14.46      10.68
H       3.46      15.75      12.53
H       5.59      18.15       8.77
H      10.57       0.88      10.72
H       9.49      -0.32      12.60
C      -1.16      13.92       5.43
C       4.06      13.49       5.71
C       0.57       8.19       5.09
C       4.69      10.22       2.55
C      -0.34      10.22       2.19
C       3.13      15.71       2.84
C      -1.71      12.43      15.10
C       0.67       7.66      15.27
C       4.01      13.96      15.33
C       4.37       9.13      17.56
C       1.96      13.69      18.28
C      -1.10       8.16      18.41
C       0.57       2.60      12.65
C      -4.70      17.73       8.04
C      10.88      15.34      13.01
C       7.93      16.61       8.51
C       8.04      17.54      13.22
C       0.03       3.06       7.75
C      12.10       1.63      24.43
C       6.98       1.98      23.93
C      10.27       7.27      24.76
C       6.92       5.75      21.10
C      11.75       5.71      21.75
C       8.51       0.27      20.83
C       6.44       5.37      36.17
C      11.64       5.79      36.02
C       8.76       0.23      36.43
C      12.70       2.41      33.40
C       7.52       1.61      33.24
C      10.12       7.68      33.30
C      10.72      13.01      31.30
C       9.65      16.23      26.77
C       0.74       0.15      31.50
C       2.82      -0.64      26.61
C      -2.20      16.52      31.09
C      11.10      12.71      26.22
C       4.50      -1.06      31.83
C      -0.34      17.01      32.74
C       6.54      -0.66      33.11
C       6.60       0.65      32.62
C       5.61       1.11      31.73
C       4.55       0.27      31.38
C       5.66       2.48      31.17
C       4.61       3.37      31.39
C       4.68       4.68      30.90
C       5.80       5.10      30.18
C       6.84       4.20      29.92
C       6.77       2.89      30.41
C      -0.46      15.69      33.38
C      -1.42      15.47      34.38
C      -1.47      14.24      35.04
C      -0.57      13.23      34.72
C       0.40      13.44      33.73
C       0.46      14.67      33.06
C      10.08       9.11      32.94
C      10.74      10.08      33.72
C      10.95      11.37      33.19
C      10.33      11.74      31.98
C       9.39      10.86      31.40
C       9.36       9.51      31.80
C       8.27      11.38      30.58
C       7.31      12.23      31.16
C       6.25      12.72      30.39
C       6.15      12.38      29.04
C       7.11      11.54      28.46
C       8.16      11.03      29.23
C      11.02       9.85      35.17
C       9.99       9.38      36.01
C      11.27      10.80       0.32
C      12.44      11.30       0.88
C      -3.31      11.77       0.05
C      -4.57      10.31      35.74
C      13.91       1.66      33.10
C      13.91       0.76      32.02
C      15.09       0.53      31.31
C      -0.46       0.95      31.82
C      -0.44       1.80      32.95
C      -1.65       2.14      33.58
C       0.80       2.46      33.39
C       1.02       3.81      33.07
C       2.04       4.52      33.70
C       2.87       3.88      34.63
C       2.69       2.52      34.91
C       1.65       1.81      34.30
C      12.72      -0.08      31.75
C       6.86      17.12      32.21
C       5.72      16.34      32.02
C       4.60      16.87      31.37
C      10.46      -0.34      30.90
C      11.60       0.45      31.09
C      10.85      11.46      25.51
C      11.93      10.65      25.12
C      11.73       9.28      24.94
C      10.44       8.72      25.04
C       9.34       9.56      25.33
C       9.56      10.93      25.52
C       7.98       9.03      25.56
C       6.93       9.47      24.75
C       5.61       9.39      25.20
C       5.33       8.83      26.45
C       6.37       8.31      27.23
C       7.69       8.40      26.79
C      -3.52      11.24      24.87
C      -3.27      11.93      23.68
C      -2.01      12.49      23.45
C      -1.00      12.37      24.41
C      -1.25      11.68      25.60
C      -2.51      11.11      25.83
C       3.95       0.28      26.41
C       5.27      -0.22      26.48
C       6.28       0.40      25.73
C       6.01       1.55      24.98
C       4.76       2.20      25.16
C       3.73       1.54      25.85
C       4.57       3.62      24.78
C       5.52       4.59      25.17
C       5.38       5.91      24.74
C       4.24       6.30      24.04
C       3.26       5.36      23.72
C       3.44       4.02      24.05
C      -0.19      17.23      27.42
C      -0.36      15.88      27.05
C       0.07      14.86      27.90
C       0.72      15.18      29.10
C       0.94      16.51      29.44
C       6.31      -0.99      28.61
C      12.74       0.45      25.07
C      12.85       0.36      26.48
C      13.66      -0.64      27.05
C       8.50      16.96      26.23
C       8.24      16.95      24.84
C      13.29      -0.56      24.27
C       8.81      15.89      23.98
C       8.28      14.59      24.01
C       8.84      13.59      23.22
C       9.94      13.87      22.41
C      10.48      15.16      22.38
C       9.91      16.17      23.16
C      12.13       1.31      27.35
C      12.83       2.31      28.04
C      12.14       3.31      28.72
C      10.74       3.31      28.74
C      10.03       2.30      28.08
C      10.72       1.29      27.40
C      12.67       6.24      20.70
C      12.39       7.46      20.01
C      13.32       7.95      19.08
C      -2.20       7.36      18.96
C      -1.94       6.12      19.59
C      13.85       5.55      20.42
C      -0.64       5.43      19.44
C      -0.19       5.04      18.17
C       1.06       4.42      18.02
C       1.85       4.16      19.14
C       1.40       4.52      20.41
C       0.16       5.16      20.56
C      11.24       8.32      20.34
C      11.27       9.08      21.52
C      10.29      10.06      21.75
C       9.31      10.30      20.79
C       9.31       9.58      19.59
C      10.27       8.59      19.37
C       2.61      17.53      20.09
C       1.76      17.39      18.97
C       1.51      16.12      18.46
C       2.18      14.99      18.95
C       3.13      15.16      20.00
C       3.30      16.42      20.58
C       3.98      14.05      20.48
C       3.74      13.50      21.75
C       4.66      12.60      22.30
C       5.82      12.25      21.60
C       6.08      12.83      20.35
C       5.18      13.74      19.80
C       7.11       0.03      18.22
C       5.84       0.57      18.50
C       5.28       1.53      17.65
C       5.96       1.92      16.49
C       7.21       1.36      16.19
C       7.80       0.45      17.07
C       5.34       8.71      18.57
C       4.97       8.63      19.94
C       5.78       7.91      20.81
C       6.65       6.95      20.30
C       7.01       7.01      18.93
C       6.47       8.03      18.13
C       7.78       5.92      18.27
C       7.33       5.37      17.05
C       8.14       4.50      16.33
C       9.36       4.07      16.86
C       9.80       4.57      18.09
C       9.02       5.51      18.78
C       3.62       9.04      20.40
C       2.78       8.10      21.05
C       1.60       8.52      21.65
C       1.20       9.86      21.58
C       2.00      10.78      20.89
C       3.20      10.37      20.30
C      -2.94      12.72      14.33
C      -2.85      13.27      13.03
C      -3.96      13.92      12.47
C      11.63      14.08      13.20
C      11.47      13.34      14.40
C      -4.19      12.68      14.96
C      10.15      13.20      15.05
C       9.54      11.93      15.11
C       8.35      11.76      15.83
C       7.76      12.84      16.48
C       8.37      14.10      16.44
C       9.57      14.27      15.75
C      -1.56      13.28      12.31
C      -0.87      14.49      12.12
C       0.39      14.49      11.51
C       0.96      13.29      11.08
C       0.28      12.08      11.27
C      -0.98      12.08      11.88
C       0.53       6.56      14.31
C      -0.67       5.81      14.24
C      -0.66       4.54      13.63
C       0.53       4.02      13.09
C       1.69       4.84      13.04
C       1.67       6.10      13.64
C       2.93       4.36      12.41
C       3.87       3.64      13.16
C       5.05       3.20      12.57
C       5.31       3.47      11.22
C       4.38       4.20      10.47
C       3.19       4.65      11.06
C      -1.96       6.35      14.79
C      14.00       5.53      15.58
C      12.80       6.04      16.10
C      12.39       7.34      15.79
C      13.19       8.14      14.97
C      -2.39       7.65      14.46
C       5.11      14.83      14.84
C       5.90      14.45      13.73
C       6.86      15.35      13.23
C       7.08      16.59      13.84
C       6.32      16.95      14.98
C       5.33      16.07      15.46
C      12.37      -0.30      15.68
C      12.10       0.92      15.03
C      12.36       2.13      15.68
C      12.84       2.13      16.99
C      13.08       0.93      17.65
C      12.86      -0.29      17.00
C       5.75      13.11      13.07
C       4.49      12.66      12.64
C       4.36      11.41      12.02
C       5.49      10.62      11.80
C       6.75      11.09      12.18
C       6.89      12.33      12.80
C       3.36      16.85       1.94
C       4.18      16.72       0.79
C       4.55      17.86       0.07
C       9.79       0.57       0.35
C       8.87       0.67       1.43
C       2.78      18.09       2.23
C       8.03       1.88       1.62
C       8.46       2.89       2.49
C       7.58       3.93       2.84
C       6.29       3.96       2.31
C       5.87       2.96       1.42
C       6.74       1.92       1.08
C       4.44      15.38       0.21
C       4.64      13.60      36.92
C       4.86      12.39      36.24
C       3.78      11.56      35.93
C       2.49      11.90      36.33
C       2.26      13.11      36.98
C      12.62       6.48      36.88
C      13.53       8.01       1.19
C      -2.39       8.83       1.94
C      -1.27       9.44       1.35
C      -2.11       7.79      37.06
C      -3.03       7.07      36.28
C      -0.83       8.19      36.44
C       0.28       7.35      36.53
C       1.36       7.50      35.66
C       1.35       8.52      34.71
C       0.26       9.40      34.64
C      -0.82       9.25      35.51
C      12.54       7.17       1.89
C      12.66       5.77       1.86
C      11.83       4.98       2.66
C      10.89       5.58       3.51
C      10.76       6.97       3.53
C      11.57       7.77       2.72
C       5.18       9.17       1.68
C       5.93       8.09       2.19
C       6.77       7.37       1.34
C       5.74       6.28      37.06
C       5.02       7.38      36.56
C       5.22       9.45       0.31
C       5.36       7.98      35.25
C       6.23       9.07      35.18
C       6.53       9.65      33.95
C       5.97       9.14      32.78
C       5.12       8.03      32.83
C       4.81       7.45      34.07
C       5.84       7.70       3.62
C       6.95       7.84       4.46
C       6.89       7.40       5.79
C       5.71       6.84       6.28
C       4.59       6.71       5.45
C       4.66       7.14       4.12
C      -2.05      14.95       6.04
C      -1.53      16.14       6.62
C      -2.41      17.05       7.25
C      -3.76      16.72       7.45
C      -4.23      15.45       6.99
C      -3.42      14.69       6.14
C      11.39      14.77       7.63
C      11.39      14.57       9.01
C      10.60      13.57       9.58
C       9.77      12.79       8.78
C       9.75      13.00       7.40
C      10.52      14.01       6.83
C      -0.08      16.35       6.75
C       0.60      17.11       5.78
C       1.91      17.53       6.02
C       2.54      17.20       7.22
C       1.86      16.45       8.19
C       0.56      16.00       7.94
C       0.43       6.86       5.74
C       0.67       5.65       5.04
C       0.58       4.42       5.72
C       0.12       4.37       7.05
C      -0.26       5.57       7.69
C      -0.04       6.80       7.06
C      -1.00       5.55       8.97
C      14.53       4.90       9.05
C      13.72       5.08      10.18
C      14.13       5.95      11.20
C      -1.42       6.60      11.11
C      -0.57       6.35      10.03
C       0.85       5.65       3.57
C      -0.21       6.01       2.73
C      -0.12       5.81       1.35
C       1.05       5.28       0.79
C       2.12       4.93       1.62
C       2.01       5.08       3.01
C       5.14      14.04       6.56
C       6.45      14.21       6.05
C       7.35      15.03       6.73
C       7.02      15.60       7.96
C       5.71      15.44       8.48
C       4.81      14.59       7.80
C       5.24      16.21       9.66
C       4.59      15.54      10.71
C       4.00      16.26      11.75
C       4.09      17.66      11.78
C      10.54      -0.20      10.72
C       5.24      17.62       9.65
C       6.89      13.58       4.78
C       7.16      14.37       3.66
C       7.77      13.81       2.53
C       8.12      12.46       2.52
C       7.86      11.66       3.64
C       7.24      12.22       4.77
O      -0.49       8.97       5.01
O       1.77       8.67       4.82
O       2.16      12.42       2.81
O       5.09      11.44       2.33
O       0.90       9.81       2.31
O       3.95       9.93       3.60
O      -0.83      11.12       3.03
O       4.13      14.94       3.17
O       1.91      15.37       3.18
O       1.36      11.63       5.16
O      -1.57      12.66       5.46
O       2.89      14.10       5.66
O      -0.28      14.31       4.53
O       4.34      12.57       4.83
O       2.80      14.46      15.47
O       4.26      12.70      15.61
O       1.30      10.48      17.66
O       3.38       8.34      17.26
O       2.96      12.87      18.13
O       4.48      10.30      16.98
O       0.90      13.53      17.53
O       0.05       8.19      19.05
O      -1.29       8.89      17.31
O       1.55      11.49      15.32
O      -0.91      13.44      15.37
O       0.42       8.89      14.90
O      -1.64      11.31      15.80
O       0.92       7.38      16.53
O      -5.53      16.37      13.76
O      10.00      15.47      12.01
O      15.32       0.77      10.02
O       7.92      17.80       7.94
O       7.98      17.73      11.94
O       8.92      16.23       9.30
O      14.89      -0.53      13.91
O      -0.47       2.01       7.14
O       0.40       2.97       9.01
O      -5.52      17.94      11.26
O      -0.12       1.70      13.32
O       1.60       0.20       8.78
O       1.25       2.26      11.57
O      10.80      17.64       7.77
O      11.34       6.49      24.80
O       9.15       6.82      24.25
O       9.26       3.54      21.57
O       6.46       4.60      20.68
O      10.53       6.17      21.84
O       7.34       5.88      22.33
O      12.15       4.75      22.57
O       7.41       0.96      21.02
O       9.62       0.62      21.42
O       9.59       3.88      24.13
O      12.47       2.83      24.82
O       8.15       1.37      23.85
O      11.47       1.47      23.29
O       6.63       2.88      23.03
O       7.66       0.73      35.96
O       9.93       0.68      35.98
O       9.62       4.15      33.47
O      12.37       3.40      32.60
O       8.80       1.31      33.37
O      11.94       2.07      34.43
O       7.03       2.61      33.94
O      11.25       7.01      33.22
O       9.01       7.06      33.63
O       9.11       3.52      35.94
O       6.05       4.12      36.14
O      10.38       6.17      36.05
O       7.16       5.85      35.19
O      12.06       4.94      35.11
O       1.02      -0.86      32.30
O       1.28       0.23      30.29
O      -4.03      15.04      28.22
O      -3.10      16.82      25.85
O      -2.37      16.72      29.82
O       1.89      -0.37      27.51
O      -2.98      15.68      31.73
O      11.35      13.81      25.56
O      11.06      12.70      27.53
O      -5.68      16.15      29.84
O      -5.17      13.81      31.85
O       9.47      15.20      27.58
O      10.23      13.25      30.10
O      -5.92      16.58      26.39
