22

Cr       4.29      16.66      20.21
Cr       2.63      19.65      20.25
Cr       6.05      19.60      20.23
C       6.47      17.22      22.16
O       5.67      16.35      21.70
O       3.41      20.76      18.87
C       2.03      17.45      22.17
O       5.62      20.96      18.75
O       6.61      18.37      18.82
C       1.98      17.46      18.33
O       4.32      18.64      20.23
O       2.95      16.78      21.61
O       1.68      18.60      21.75
O       3.42      20.75      21.65
O       5.63      20.94      21.75
C       4.47      21.18      18.28
O       6.62      18.36      21.60
C       6.47      17.24      18.26
O       5.67      16.36      18.70
O       2.94      16.79      18.83
O       1.67      18.61      18.75
C       4.47      21.23      22.19
