22

Cr      10.82      17.02       6.78
Cr       9.14      14.03       6.74
Cr      12.57      14.08       6.76
C      13.00      16.46       4.83
O      12.21      17.33       5.29
O       9.92      12.92       8.12
C       8.56      16.23       4.81
O      12.13      12.73       8.24
C       8.52      16.20       8.68
O      13.13      15.31       8.17
O      10.84      15.04       6.76
O       9.48      16.90       5.38
O       8.20      15.08       5.24
O       9.93      12.93       5.34
O      12.14      12.74       5.24
C      10.98      12.47       8.68
O      13.14      15.32       5.39
O      12.19      17.32       8.29
C      12.91      16.41       8.79
O       9.46      16.89       8.16
O       8.19      15.07       8.24
C      10.98      12.45       4.80
