26

H       9.09      25.26      22.88
H       8.43      24.67      24.43
H      13.26      25.51      24.32
H      12.26      26.55      23.26
C       9.36      25.01      23.93
C      10.44      23.89      23.96
H      10.61      25.07      27.03
H      12.30      24.67      26.57
H      11.57      22.79      25.49
C      11.28      24.85      26.16
H      12.51      23.67      23.24
H       9.86      27.15      23.94
H       9.18      26.54      25.49
C      12.22      25.70      23.98
C      11.30      26.06      25.19
C       9.87      26.29      24.65
H       9.89      23.18      25.96
C      10.78      23.58      25.44
H      11.48      24.69      22.19
C      11.85      27.26      25.92
C      11.71      24.44      23.25
O      10.81      21.72      22.93
O       8.68      22.33      23.40
O      13.14      27.45      25.94
O      11.04      28.14      26.48
C       9.95      22.64      23.28
