26

C       5.01       5.67      11.03
C       4.14       5.53       9.74
C       3.79       3.08      10.35
C       3.35       3.85      11.63
C       4.55       4.68      12.13
C       2.20       4.82      11.24
C       2.66       5.81      10.13
C       4.25       4.07       9.24
O       4.09       6.52       7.50
O       5.30       7.57       9.12
H       6.08       5.48      10.79
H       4.94       6.70      11.44
H       2.94       2.47       9.97
H       4.62       2.38      10.58
H       5.40       4.02      12.40
H       4.27       5.25      13.04
H       1.87       5.41      12.12
H       1.32       4.24      10.87
H       2.00       5.70       9.24
H       2.55       6.85      10.50
H       3.62       3.93       8.33
H       5.30       3.85       8.95
C       2.93       2.89      12.71
O       1.92       3.20      13.47
O       3.80       1.98      13.12
C       4.60       6.53       8.71
