26

O      27.92      14.00      12.40
O      26.16      14.87      13.58
H      24.24      12.66       9.27
H      22.95      13.16      10.42
H      27.02      11.15      12.37
H      27.21      12.03      10.82
H      25.71      14.06      10.30
H      24.44      14.55      11.46
H      24.14      13.27      13.67
H      25.20      11.88      14.04
H      23.68      10.50      13.03
H      22.64      11.90      12.64
H      25.50       9.75      11.38
H      25.72      10.62       9.83
C      23.98      12.73      10.35
C      24.00      11.32      11.01
C      26.47      11.70      11.58
C      25.74      12.94      12.19
C      24.99      13.67      11.05
C      24.69      12.42      13.21
C      23.67      11.49      12.52
C      25.44      10.75      10.90
C      26.69      13.90      12.85
O      22.96      10.39       9.03
O      22.57       9.36      11.02
C      23.02      10.40      10.34
