26

O      21.40      24.28       4.39
O      23.42      23.37       4.88
H      24.88      25.93       5.29
H      25.44      24.77       4.05
H      22.64      28.48       2.43
H      23.67      28.82       3.86
H      25.92      27.63       4.14
H      26.48      26.45       2.91
H      25.01      25.95       0.86
H      23.44      26.77       0.66
H      22.40      25.09       1.80
H      23.97      24.26       2.00
H      21.60      26.79       3.56
H      22.62      27.12       5.00
C      24.87      25.71       4.20
C      23.40      25.52       3.71
C      23.36      28.02       3.14
C      24.61      27.49       2.38
C      25.57      26.85       3.42
C      24.14      26.36       1.41
C      23.44      25.22       2.19
C      22.66      26.87       3.91
C      25.27      28.60       1.58
C      22.71      24.39       4.46
O      26.42      29.11       1.97
O      24.59      29.21       0.64
