26

O       8.43       7.22       4.85
O       9.52       8.07       6.68
O      11.09      13.23       1.97
O      13.05      12.30       2.65
C      11.76      12.20       2.47
H      11.79       8.45       4.99
H      11.05       7.84       3.48
H      10.06      12.54       4.60
H      11.65      11.92       5.17
H      12.86      10.07       3.82
H      12.13       9.47       2.30
H       9.87      10.38       1.50
H       9.01      11.64       2.45
H       7.94      10.00       3.66
H       8.79       8.75       2.69
H       9.00      10.92       5.81
H      10.60      10.31       6.36
C       9.14       8.18       5.43
C      11.17       8.75       4.12
C       9.78       9.25       4.60
C      10.70      11.64       4.65
C      11.02      11.13       3.22
C      11.89       9.85       3.32
C       9.67      10.75       2.53
C       8.94       9.64       3.34
C       9.99      10.54       5.46
