14

Cu      18.51      16.87      20.53
C      20.31      17.61      18.44
Cu      18.52      15.45      18.54
C      20.31      14.71      20.63
O      19.95      17.90      19.63
O      17.18      14.31      19.40
O      17.08      15.68      21.22
O      19.87      15.69      21.34
C      16.76      17.70      18.50
O      19.96      14.43      19.44
O      19.87      16.63      17.73
C      16.76      14.63      20.57
O      17.17      18.01      19.67
O      17.09      16.64      17.85
