14

O      13.02       8.86      17.73
O      11.88       8.29      19.63
Cu      13.48       7.56      20.53
C      13.65       5.63      18.50
C      11.95       8.75      18.43
C      16.30       7.16      20.57
Cu      14.71       8.27      18.54
O      13.83       9.32      21.33
O      14.88      10.03      19.44
O      16.37       7.68      19.40
O      15.22       6.92      21.23
O      13.17       5.83      19.67
O      14.39       6.44      17.85
C      14.45      10.19      20.63
