10

O       5.82       2.54       5.15
O       3.57       2.31       5.38
H       2.73       0.16       5.44
H       5.84      -0.01       5.13
C       3.82      -1.68       5.33
C       4.75       1.83       5.26
C       3.72      -0.28       5.34
C       4.85       0.43       5.24
O       5.00      -2.16       5.21
O       2.75      -2.39       5.44
