34

H      17.89      17.07       4.09
H      23.71      18.57       7.59
H      21.41      19.73      11.06
H      15.53      18.10       7.56
H      13.61      16.69       3.97
H      25.71      19.73      11.22
C      15.77      16.84       3.89
C      16.93      17.16       4.59
C      15.86      16.44       2.45
C      24.84      19.15       9.33
C      23.66      18.93       8.62
C      26.15      18.86       8.68
C      23.55      19.78      11.28
C      22.36      19.57      10.57
C      23.48      20.16      12.73
C      14.44      17.39       5.84
C      15.60      17.73       6.54
C      13.11      17.58       6.51
C      18.04      17.98       6.62
C      19.06      18.29       7.23
C      14.51      16.94       4.52
C      16.87      17.62       5.92
C      21.21      18.88       8.52
C      20.18      18.61       7.90
C      24.79      19.58      10.66
C      22.40      19.14       9.23
O      14.76      16.21       1.84
O      17.03      16.38       1.94
O      27.20      19.08       9.38
O      26.13      18.41       7.48
O      24.59      20.33      13.34
O      22.31      20.25      13.24
O      12.06      17.31       5.83
O      13.14      18.01       7.72
