34

H      22.64       6.66       7.68
H      26.54      11.38      11.17
H      26.57      13.92       7.67
H      22.78       9.23       4.20
H      20.90       5.36       3.97
H      28.65      15.13      11.24
C      21.72       5.89       5.90
C      22.40       6.86       6.64
C      21.38       4.59       6.55
C      27.64      13.22      11.34
C      26.86      12.28      10.66
C      28.00      12.98      12.77
C      27.66      14.64       9.37
C      26.88      13.71       8.69
C      28.03      15.92       8.70
C      21.80       7.32       3.95
C      22.48       8.30       4.69
C      21.53       7.56       2.50
C      23.52       9.04       6.78
C      24.19       9.87       7.39
C      21.42       6.12       4.55
C      22.79       8.08       6.04
C      25.65      11.58       8.64
C      24.94      10.77       8.06
C      28.05      14.40      10.70
C      26.46      12.52       9.33
O      20.74       3.73       5.84
O      21.78       4.42       7.75
O      28.69      13.87      13.37
O      27.56      11.89      13.29
O      28.70      16.77       9.38
O      27.62      16.08       7.49
O      20.93       6.63       1.86
O      21.94       8.67       2.00
