256

C      -3.11      13.48      35.65
C      -2.70      14.16      34.48
C      -1.49      13.85      33.83
C      -0.67      12.84      34.40
C      -1.00      12.20      35.62
C      -2.25      12.52      36.22
C      -4.32      13.83      36.31
C      -4.52      15.17      36.72
C      -5.66      15.53      37.47
C      -6.60      14.53      37.80
C      -6.46      13.19      37.37
C      -5.29      12.86      36.64
C      14.77       6.64      16.19
C      14.35       6.00      15.00
C      13.15       6.37      14.34
C      12.37       7.40      14.93
C      12.72       8.00      16.16
C      13.94       7.63      16.76
C      15.94       6.21      16.86
C      16.06       4.87      17.28
C      17.14       4.44      18.07
C      18.14       5.38      18.42
C      18.08       6.73      17.99
C      16.96       7.13      17.22
C       8.68       6.43       3.25
C       9.13       5.94       4.50
C      10.40       6.29       5.03
C      11.22       7.13       4.24
C      10.85       7.55       2.94
C       9.56       7.20       2.47
C       7.38       6.12       2.77
C       6.99       4.77       2.64
C       5.76       4.42       2.03
C       4.92       5.45       1.57
C       5.29       6.80       1.67
C       6.52       7.13       2.27
C       2.98      13.90      22.73
C       2.54      14.36      24.00
C       1.29      13.96      24.54
C       0.50      13.08      23.76
C       0.86      12.69      22.45
C       2.13      13.08      21.97
C       4.24      14.31      22.20
C       4.50      15.69      22.05
C       5.66      16.13      21.38
C       6.58      15.17      20.89
C       6.33      13.79      21.01
C       5.15      13.37      21.67
C      -1.14      14.41      32.55
C       0.19      14.76      32.18
C      -0.42      14.81      29.86
C      -1.79      14.64      30.18
C      -2.13      14.42      31.53
C      -0.01      14.80      28.51
C       1.76      14.53      26.92
C       0.85      14.37      25.84
C      -0.52      14.53      26.15
C      -0.97      14.69      27.47
C      -2.35      14.65      27.80
C      -2.75      14.60      29.15
C       1.31      15.01      33.11
C      12.80       5.84      13.06
C      11.46       5.53      12.68
C      12.07       5.45      10.36
C      13.44       5.58      10.69
C      13.78       5.80      12.04
C      11.66       5.46       9.01
C       9.91       5.75       7.42
C      10.82       5.88       6.34
C      12.19       5.69       6.65
C      12.64       5.53       7.98
C      14.01       5.54       8.32
C      14.41       5.59       9.66
C      10.32       5.32      13.61
C       5.57       3.09       1.59
C       5.47       1.98       2.47
C       5.62       0.46       0.60
C       5.70       0.96      38.35
C       5.67       2.85       0.20
C      -6.13      20.09       0.13
C      -6.05      17.76       0.61
C      -5.84      16.86      37.90
C      -5.79      17.93      36.98
C      -5.94      19.26      37.41
C      -5.88      20.34      36.50
C       5.86       0.71      36.97
C       5.34       2.05       3.94
C       4.52       7.78       0.99
C       3.77       8.79       1.66
C       2.76       8.89      38.24
C       3.50       7.92      37.53
C       4.39       7.09      38.24
C       1.83       9.70      37.57
C       0.17      11.42      37.65
C      -0.08      11.32      36.26
C       0.67      10.36      35.53
C       1.63       9.55      36.17
C       2.38       8.59      35.46
C       3.32       7.79      36.13
C       3.79       8.98       3.13
C      11.73       8.36       2.16
C      13.07       7.99       1.86
C      13.45      10.08       0.75
C      12.11      10.48       0.96
C      11.26       9.61       1.68
C      14.36      10.97       0.13
C      16.61      10.92      38.17
C      16.24      12.22      37.74
C      14.86      12.54      37.79
C      13.91      11.65      38.33
C      12.56      12.02      38.50
C      11.66      11.73       0.49
C      13.66       6.67       2.17
C       5.74      17.46      20.93
C       5.87      18.59      21.79
C       5.62      20.08      19.92
C       5.49      19.00      19.02
C       5.55      17.69      19.54
C      17.38       0.45      19.44
C      17.44       2.80      19.88
C      17.22       3.10      18.52
C      17.08       2.03      17.61
C      17.17       0.69      18.06
C       5.20      20.56      17.17
C       5.28      19.24      17.65
C       6.08      18.52      23.25
C       7.16      12.87      20.32
C       7.95      11.89      20.97
C       8.97      11.26      18.88
C       8.19      12.22      18.18
C       7.28      13.01      18.91
C       9.91      10.48      18.18
C      11.57       8.77      18.22
C      11.81       8.89      16.83
C      11.05       9.86      16.12
C      10.09      10.65      16.78
C       9.31      11.61      16.09
C       8.36      12.38      16.79
C       7.96      11.68      22.43
C      -0.01      11.89      21.66
C      -1.34      12.31      21.34
C      -1.75      10.24      20.20
C      -0.43       9.80      20.44
C       0.43      10.64      21.18
C      -2.67       9.39      19.54
C      -4.91       8.95      18.84
C      19.10       7.65      18.40
C      -3.22       7.27      18.49
C      -2.26       8.11      19.08
C      -0.92       7.70      19.28
C      -0.01       8.54      19.96
C      -1.91      13.63      21.67
H      -3.32      14.87      34.08
H      -2.52      12.06      37.09
H       0.20      12.58      33.93
H      -3.81      15.87      36.52
H      -7.41      14.80      38.38
H      -5.15      11.89      36.33
H      14.93       5.26      14.59
H      14.22       8.05      17.65
H      11.51       7.69      14.46
H      15.30       4.21      17.07
H      18.92       5.07      19.01
H      16.88       8.10      16.90
H       8.50       5.34       5.05
H       9.27       7.51       1.54
H      12.09       7.49       4.63
H       7.65       4.03       2.90
H       4.06       5.19       1.06
H       6.83       8.11       2.30
H       3.14      14.99      24.53
H       2.41      12.80      21.02
H      -0.37      12.70      24.15
H       3.79      16.37      22.33
H       7.39      15.49      20.35
H       4.93      12.37      21.71
H      -3.09      14.15      31.74
H      -3.05      14.55      27.07
H      -3.74      14.47      29.36
H      -1.22      14.45      25.40
H       2.77      14.41      26.79
H       0.99      15.04      34.15
H       1.77      15.97      32.89
H       2.06      14.22      33.00
H      14.76       6.03      12.26
H      14.72       5.61       7.59
H      15.40       5.69       9.88
H      12.90       5.74       5.91
H       8.91       5.91       7.29
H      10.64       5.27      14.65
H       9.83       4.37      13.38
H       9.60       6.13      13.49
H       5.79       3.06      38.21
H      -5.74      20.18      35.50
H       5.93       1.48      36.30
H      -5.65      17.73      35.98
H      -6.08      17.02       1.32
H       5.25       3.08       4.30
H       6.21       1.59       4.41
H       4.44       1.51       4.25
H       4.91       6.37      37.74
H       2.25       8.47      34.45
H       3.84       7.09      35.60
H       0.50      10.25      34.53
H      -0.30      12.12      38.23
H       3.50       8.06       3.63
H       3.10       9.77       3.43
H       4.79       9.26       3.45
H      10.30       9.90       1.89
H      12.22      12.93      38.19
H      10.70      12.03       0.64
H      14.54      13.46      37.46
H      -6.09      10.62      38.19
H      13.01       5.87       1.81
H      13.80       6.55       3.25
H      14.64       6.55       1.70
H       5.42      16.90      18.91
H      16.88      -0.24      16.17
H       5.18      18.46      16.99
H      16.94       2.21      16.61
H      17.53       3.53      20.58
H       6.18      17.50      23.62
H       5.23      18.99      23.76
H       6.99      19.06      23.51
H       6.73      13.71      18.42
H       9.43      11.74      15.09
H       7.81      13.07      16.27
H      11.20       9.99      15.12
H      12.06       8.07      18.78
H       8.21      12.61      22.94
H       8.70      10.92      22.72
H       6.98      11.34      22.77
H       1.38      10.32      21.39
H      -0.61       6.78      18.97
H       0.94       8.20      20.12
H      -2.93       6.34      18.17
H      17.80       9.29      18.84
H      -1.24      14.42      21.32
H      -2.05      13.73      22.74
H      -2.88      13.78      21.19
N       0.49      14.90      30.86
N       1.31      14.72      28.18
N      11.16       5.39      11.37
N      10.35       5.57       8.69
N       5.50       0.73       1.93
N      -6.18      19.05       1.00
N       2.93       9.57       0.93
N       1.10      10.63      38.24
N      13.86       8.86       1.19
N      15.68      10.65       0.02
N       5.80      19.83      21.25
N      17.51       1.51      20.29
N       8.81      11.14      20.22
N      10.65       9.55      18.83
N      -2.14      11.46      20.64
N      -3.97       9.76      19.39
