450

C      34.56      16.99      15.78
C      33.51      16.12      15.48
C      32.67      16.71      14.55
C      33.14      17.99      14.25
C      32.45      18.76      13.27
C      31.32      18.22      12.60
C      30.86      16.93      12.97
C      31.53      16.17      13.94
C      33.38      14.86      16.09
C      34.32      14.49      17.06
C      35.38      15.36      17.43
C      35.51      16.60      16.76
C      35.54      18.63      14.14
C      36.06      19.89      14.46
C      35.36      20.38      15.57
C      34.35      19.47      15.89
C      35.59      21.51      16.36
C      34.81      21.71      17.52
C      33.76      20.83      17.88
C      33.54      19.71      17.02
C      36.03      17.94      13.00
C      37.01      18.53      12.15
C      37.49      19.82      12.50
C      37.05      20.49      13.66
C      34.40      18.27      15.02
C      33.06      20.91      19.13
C      37.32      17.91      10.89
C      30.59      18.93      11.60
C      36.29      14.90      18.43
C       9.44      40.43      14.15
C      10.45      41.33      14.51
C      11.21      40.80      15.53
C      10.69      39.54      15.88
C      11.36      38.79      16.89
C      12.54      39.29      17.50
C      12.99      40.59      17.14
C      12.34      41.34      16.16
C      10.59      42.59      13.89
C       9.66      42.95      12.91
C       8.59      42.09      12.54
C       8.51      40.81      13.15
C       9.69      37.93      14.29
C       8.66      37.03      14.59
C       7.75      37.67      15.44
C       8.25      38.94      15.75
C       6.49      37.26      15.91
C       5.71      38.17      16.66
C       6.19      39.46      17.00
C       7.49      39.82      16.54
C      10.77      37.50      13.49
C      10.86      36.15      13.02
C       9.81      35.27      13.37
C       8.69      35.71      14.12
C       9.52      39.21      15.02
C       5.35      40.45      17.62
C      12.08      35.70      12.41
C      13.26      38.59      18.51
C       7.69      42.54      11.53
C      21.33      15.25       4.46
C      20.28      15.95       3.85
C      19.45      16.46       4.83
C      19.92      16.08       6.09
C      19.23      16.54       7.24
C      18.10      17.40       7.10
C      17.64      17.72       5.80
C      18.31      17.26       4.66
C      20.16      16.05       2.46
C      21.10      15.40       1.65
C      22.16      14.64       2.21
C      22.29      14.60       3.63
C      22.32      15.86       6.70
C      22.83      14.95       7.62
C      22.14      13.75       7.50
C      21.13      13.92       6.55
C      22.37      12.49       8.09
C      21.59      11.39       7.68
C      20.54      11.52       6.73
C      20.31      12.82       6.19
C      22.81      17.18       6.66
C      23.79      17.63       7.60
C      24.27      16.68       8.54
C      23.82      15.34       8.54
C      21.17      15.28       5.95
C      19.84      10.39       6.18
C      24.11      19.03       7.68
C      17.36      17.90       8.22
C      23.07      14.00       1.32
C      22.66      42.35      25.57
C      23.67      41.59      26.18
C      24.43      40.98      25.20
C      23.92      41.29      23.94
C      24.58      40.80      22.79
C      25.77      40.02      22.92
C      26.22      39.69      24.22
C      25.56      40.16      25.37
C      23.81      41.51      27.57
C      22.88      42.17      28.38
C      21.82      42.92      27.82
C      21.74      43.03      26.40
C      22.91      43.49      23.34
C      21.88      43.67      22.41
C      20.98      42.61      22.54
C      21.47      41.71      23.49
C      19.71      42.41      21.95
C      18.93      41.31      22.36
C      19.41      40.36      23.30
C      20.71      40.58      23.85
C      23.99      44.39      23.37
C      24.08      45.46      22.43
C      23.03      45.61      21.50
C      21.91      44.74      21.50
C      22.74      42.21      24.08
C      18.58      39.33      23.85
C      25.30      46.22      22.34
C      26.49      39.50      21.81
C      20.91      43.57      28.71
C       8.10      25.93       8.61
C       7.05      26.10       9.51
C       6.22      25.00       9.47
C       6.68      24.10       8.51
C       6.00      22.87       8.33
C       4.86      22.56       9.14
C       4.40      23.53      10.06
C       5.07      24.74      10.24
C       6.92      27.25      10.30
C       7.86      28.28      10.14
C       8.92      28.18       9.20
C       9.05      26.97       8.46
C       9.09      23.68       8.01
C       9.60      23.34       6.76
C       8.91      24.05       5.78
C       7.89      24.79       6.41
C       9.14      24.17       4.40
C       8.36      25.08       3.65
C       7.31      25.83       4.24
C       7.08      25.65       5.64
C       9.58      23.05       9.17
C      10.56      22.02       9.09
C      11.05      21.68       7.80
C      10.60      22.35       6.64
C       7.94      24.62       7.88
C       6.62      26.87       3.54
C      10.88      21.25      10.26
C       4.13      21.34       9.01
C       9.83      29.26       9.10
C      35.89      31.50      21.52
C      36.90      31.36      20.56
C      37.66      32.51      20.52
C      37.14      33.45      21.42
C      37.81      34.69      21.57
C      38.99      34.97      20.83
C      39.45      34.01      19.89
C      38.79      32.78      19.73
C      37.04      30.20      19.79
C      36.12      29.16      19.96
C      35.05      29.27      20.89
C      34.97      30.44      21.70
C      36.14      32.87      23.62
C      35.11      33.58      24.25
C      34.20      34.00      23.27
C      34.70      33.63      22.02
C      32.94      34.61      23.39
C      32.16      34.81      22.23
C      32.64      34.46      20.94
C      33.94      33.88      20.86
C      37.22      32.39      24.39
C      37.31      32.67      25.79
C      36.26      33.41      26.38
C      35.14      33.84      25.63
C      35.97      32.86      22.15
C      31.81      34.50      19.77
C      38.53      32.36      26.49
C       0.03      36.20      20.94
C      34.14      28.17      21.00
C      33.14      23.31      19.84
C      32.79      24.05      18.70
C      32.95      25.46      18.68
C      33.44      26.11      19.85
C      32.59      26.21      17.45
C       3.61      39.24      18.93
C       4.32      38.25      19.65
C       3.61      37.22      20.34
C       2.19      37.24      20.31
C       4.38      36.19      21.08
C      11.51      33.65      11.09
C      10.34      33.99      10.38
C       9.61      32.98       9.69
C      10.10      31.64       9.72
C       8.38      33.36       8.96
C      -0.13      18.78      10.17
C       0.68      18.69      11.32
C       1.96      19.31      11.34
C       2.41      19.99      10.16
C       2.79      19.22      12.56
C      19.93       8.58       7.89
C      19.57       9.20       9.11
C      19.73       8.51      10.34
C      20.22       7.17      10.31
C      19.36       9.19      11.61
C      16.84      38.80      22.14
C      17.55      38.68      20.93
C      16.84      38.60      19.70
C      15.42      38.60      19.72
C      17.61      38.48      18.43
C      24.73      48.39      21.23
C      23.57      48.84      21.88
C      36.07      12.53      21.35
C      36.56      13.18      20.18
C      34.84      12.98      22.05
C      26.33      19.21       8.80
C      27.14      18.26       8.16
C      28.42      17.93       8.68
C      28.87      18.61       9.86
C      29.25      16.91       7.99
C       6.70      26.30       1.11
C       6.34      24.93       1.04
C      19.72      42.92      32.23
C      20.21      43.61      31.08
C      19.35      41.48      32.19
C      30.07      36.25      20.16
C      30.77      37.36      20.67
C      30.07      38.47      21.21
C      28.64      38.44      21.21
C      30.83      39.63      21.74
C      37.96      32.24      28.92
C      36.80      31.46      28.99
C      36.07      31.37      30.20
C      36.56      32.06      31.35
C      34.83      30.54      30.25
C      13.11      20.19       9.86
C      13.92      21.23       9.36
C      15.20      20.93       8.82
C      15.64      19.58       8.82
C      16.03      22.04       8.28
H      38.12      20.33      11.88
H      37.38      21.43      13.87
H      36.37      22.14      16.16
H      35.08      22.48      18.14
H      32.83      19.01      17.25
H      35.61      17.04      12.77
H      32.81      19.69      13.03
H      30.02      16.52      12.55
H      31.19      15.24      14.18
H      36.26      17.25      17.01
H      32.62      14.23      15.85
H      34.22      13.56      17.48
H       9.86      34.28      13.15
H       7.97      35.04      14.40
H       6.10      36.36      15.63
H       4.75      37.89      16.88
H       7.86      40.75      16.72
H      11.52      38.17      13.31
H      11.01      37.86      17.13
H      13.81      41.01      17.59
H      12.70      42.27      15.90
H       7.76      40.17      12.90
H      11.34      43.23      14.15
H       9.79      43.86      12.46
H      24.90      16.97       9.29
H      24.15      14.69       9.26
H      23.15      12.36       8.73
H      21.86      10.47       8.03
H      19.60      12.97       5.47
H      22.39      17.83       6.00
H      19.58      16.29       8.17
H      16.80      18.28       5.66
H      17.97      17.52       3.73
H      23.04      14.06       4.07
H      19.40      16.58       2.03
H      21.00      15.50       0.64
H      23.08      46.29      20.74
H      21.19      44.83      20.78
H      19.32      43.10      21.31
H      17.98      41.25      22.01
H      21.09      39.96      24.57
H      24.75      44.21      24.03
H      24.23      41.05      21.86
H      27.03      39.08      24.36
H      25.92      39.93      26.29
H      20.98      43.57      25.97
H      24.56      40.96      28.00
H      23.01      42.11      29.39
H      11.68      20.89       7.67
H      10.93      22.06       5.72
H       9.92      23.68       3.96
H       8.63      25.23       2.68
H       6.37      26.20       6.13
H       9.16      23.30      10.07
H       6.35      22.19       7.65
H       3.56      23.36      10.62
H       4.73      25.42      10.93
H       9.81      26.86       7.77
H       6.16      27.36      10.97
H       7.76      29.11      10.73
H      36.31      33.71      27.35
H      34.42      34.41      26.07
H      32.55      34.82      24.31
H      31.20      35.14      22.36
H      34.32      33.57      19.96
H      37.98      31.91      23.90
H      37.46      35.37      22.26
H       0.58      34.19      19.30
H      39.15      32.10      19.06
H      34.21      30.55      22.38
H      37.79      30.10      19.10
H      36.24      28.32      19.40
H      32.41      23.56      17.88
H      32.16      25.58      16.68
H      33.48      26.69      17.03
H      31.86      26.98      17.70
H      32.59      21.73      20.88
H      33.90      27.89      19.05
H       5.34      38.29      19.68
H       5.45      36.37      21.06
H       4.20      35.21      20.63
H       4.06      36.16      22.12
H       3.69      41.15      18.46
H       1.85      35.38      20.98
H      10.04      34.96      10.35
H       8.19      34.43       8.97
H       7.51      32.87       9.41
H       8.46      33.05       7.91
H      13.29      34.36      11.57
H       8.46      30.70       9.06
H      40.02      18.17      12.13
H       2.34      18.60      13.34
H       2.95      20.21      12.99
H       3.76      18.78      12.32
H      38.23      17.75       9.13
H       3.94      21.01      10.97
H      19.19      10.14       9.09
H      18.93      10.17      11.44
H      20.25       9.32      12.23
H      18.63       8.59      12.15
H      19.38       8.46       6.00
H       7.44      44.38      12.26
H      18.57      38.63      20.94
H      18.69      38.41      18.59
H      17.43      39.36      17.81
H      17.29      37.59      17.88
H      16.92      38.25      24.03
H      15.08      38.97      17.78
H      23.26      48.38      22.74
H      21.42      49.84      22.97
H      33.97      12.84      21.40
H      34.92      14.04      22.30
H      26.51      47.62      21.61
H      34.91      14.22      19.70
H      26.81      17.82       7.30
H      28.80      16.56       7.07
H      29.40      16.05       8.64
H      30.22      17.34       7.74
H      25.02      20.63       8.43
H      30.39      17.40      10.34
H       5.96      24.48       1.87
H       5.70      22.42       0.73
H      20.24      40.87      31.99
H      18.62      41.31      31.40
H       6.16      27.99       1.96
H      20.66      42.02      29.94
H      31.79      37.37      20.62
H      31.91      39.52      21.59
H      30.66      39.72      22.82
H      30.51      40.54      21.24
H      30.14      34.89      18.74
H      28.31      39.94      22.50
H      36.49      30.95      28.16
H      34.64      30.02      29.31
H      33.97      31.18      30.45
H      34.92      29.79      31.04
H      39.74      32.30      28.07
H      21.69      13.25       0.10
H      13.58      22.19       9.41
H      15.57      23.02       8.43
H      16.18      21.91       7.21
H      17.00      22.04       8.78
H      11.79      19.80      11.28
H      17.17      19.76       7.53
N      33.72      25.31      20.92
N      33.56      24.01      20.92
N      32.93      21.96      20.00
N      33.77      27.45      19.91
N       1.60      38.25      19.62
N       2.26      39.19      19.00
N       4.19      40.32      18.32
N       1.40      36.22      20.82
N      11.26      31.42      10.40
N      11.92      32.36      11.03
N      12.34      34.56      11.70
N       9.41      30.56       9.21
N       1.57      19.99       9.10
N       0.39      19.42       9.09
N      38.35      18.14      10.02
N       3.56      20.74      10.11
N      20.50       6.64       9.09
N      20.35       7.29       7.97
N      19.72       9.11       6.65
N       7.32      43.86      11.45
N      14.83      38.69      20.94
N      15.49      38.76      22.07
N      17.42      38.78      23.38
N      14.63      38.68      18.59
N      37.71      12.69      19.64
N      38.37      11.68      20.14
N      25.56      47.41      21.71
N      35.86      14.15      19.50
N      28.03      19.54      10.39
N      26.86      19.83       9.89
N      25.13      19.67       8.32
N      30.02      18.28      10.54
N      20.49      44.93      31.23
N      20.34      45.58      32.35
N       6.49      27.10       2.19
N      20.54      42.99      29.89
N      28.05      37.34      20.68
N      28.71      36.33      20.17
N      30.64      35.18      19.53
N      27.85      39.38      21.84
N      37.71      32.76      31.20
N      38.37      32.84      30.07
N      38.79      32.32      27.83
N      22.64      13.45       0.14
N      14.80      18.65       9.35
N      13.63      18.94       9.85
N      11.91      20.38      10.50
N      16.80      19.15       8.18
O      36.35      17.11      10.38
O      32.61      19.74      19.63
O      30.28      20.22      11.87
O      37.61      15.03      18.16
O      13.19      36.40      12.73
O       5.64      41.74      17.30
O      12.54      38.04      19.51
O       7.41      41.67      10.53
O      23.14      19.87       7.24
O      19.40      10.54       4.91
O      17.05      17.03       9.20
O      24.39      14.19       1.57
O      26.42      45.60      22.80
O      18.87      38.96      25.13
O      25.77      38.91      20.82
O      20.63      44.87      28.46
O       9.91      21.21      11.21
O       6.18      27.90       4.31
O       3.81      20.94       7.76
O      11.15      28.96       9.12
O      39.65      32.28      25.72
O      32.10      33.59      18.81
O      38.99      37.34      20.91
O      33.86      27.74      22.26
