39

H       4.37       9.13       8.15
H       4.99      12.32       5.34
H       6.36      12.73       9.40
H       4.72       8.27      12.82
H       4.11       8.66      10.29
H       1.99       9.66       2.79
H       3.30      11.49       4.18
H       8.26      16.67       7.63
H       7.56      14.39       8.76
C       5.40      10.86       8.93
C       4.75      10.12       7.93
C       4.56      10.65       6.64
C       5.08      11.93       6.35
C       5.74      12.68       7.33
C       5.88      12.14       8.62
C       5.54      10.31      10.28
C       6.12       9.91      12.67
C       5.17       9.02      12.19
C       4.85       9.24      10.84
C       6.70       9.96      14.01
C       3.83       9.92       5.61
C       2.58       8.22       4.29
C       2.54       9.48       3.71
C       3.25      10.44       4.45
C       1.91       7.02       3.80
C       6.28      14.00       7.04
C       6.95      16.16       5.99
C       7.56      15.95       7.22
C       7.17      14.74       7.82
C       7.24      17.25       5.06
S       6.62      11.02      11.44
S       3.50       8.22       5.75
S       5.89      14.85       5.58
O       6.25       9.14      14.92
O       7.66      10.75      14.25
O       0.97       7.13       2.95
O       2.24       5.85       4.28
O       8.17      18.07       5.34
O       6.60      17.32       3.93
