63

C      24.61      16.73      18.66
C      23.23      16.95      18.88
C      22.41      15.81      19.14
C      22.94      14.50      18.92
C      24.32      14.32      18.67
C      25.16      15.45      18.76
H      16.88      21.06      17.70
C      26.66      15.28      18.89
C      20.55      22.25      17.49
C      20.28      20.91      17.86
C      18.95      20.45      17.77
C      17.91      21.40      17.67
C      18.18      22.79      17.65
C      20.96      15.95      19.56
F      18.77      18.47      19.03
C      18.63      18.98      17.76
F      26.52      22.16      22.20
F      25.62      20.18      21.65
C      26.58      23.01      18.13
C      25.51      22.62      17.30
F      19.49      18.32      16.89
F      24.31      22.63      15.21
C      24.50      21.81      17.82
C      24.48      21.45      19.18
C      25.50      21.92      20.04
H      25.26      17.58      18.49
H      22.28      13.65      18.88
H      21.58      22.56      17.38
N      21.64      18.87      18.51
N      22.14      20.97      19.45
N      23.66      19.23      19.68
H      23.73      21.42      17.16
C      25.47      23.04      15.84
H      27.36      23.02      20.14
C      25.49      21.55      21.51
F      24.30      21.95      22.09
C      22.78      18.37      19.10
C      21.31      20.20      18.70
C      23.41      20.56      19.65
O      25.26      13.38      16.68
O      24.63      11.90      18.27
O      16.18      23.22      18.91
O      16.88      24.90      17.57
O      28.83      22.59      17.43
O      27.94      24.65      16.99
F      27.21      16.37      19.55
C      24.77      13.15      17.86
C      27.85      23.46      17.55
C      17.10      23.72      18.14
F      27.23      15.19      17.63
F      26.55      22.49      15.16
F      26.96      14.15      19.62
F      20.19      16.20      18.44
F      17.34      18.74      17.33
F      20.81      16.97      20.48
F      20.50      14.79      20.15
F      21.20      24.87      16.99
F      25.53      24.42      15.74
F      19.52      25.41      18.37
C      19.52      23.21      17.46
F      19.15      25.16      16.15
C      19.85      24.68      17.24
C      26.54      22.70      19.51
