35

O       0.76       3.39      12.62
O       0.34       4.80      14.32
O       0.89       9.84       3.75
O       2.22      10.63       5.40
F      -4.40       7.67       8.06
F      -2.94       6.01       8.12
F      -4.07       6.55       9.91
F      -3.53      10.11       8.91
F      -2.04      10.11      10.51
F      -3.94       9.06      10.77
H       0.44       4.43      10.35
H      -0.95       6.82      13.65
H      -2.14       8.30      12.10
H      -0.57       6.03       8.77
H      -2.80       8.07       6.47
H      -1.30       8.89       4.69
H       1.60      10.04       7.63
H       0.16       9.14       9.43
C       0.35       4.52      13.07
C      -0.19       5.52      12.11
C      -0.08       5.31      10.72
C      -0.89       6.64      12.58
C      -1.55       7.48      11.69
C      -1.47       7.26      10.31
C      -0.68       6.19       9.84
C      -2.30       8.05       9.26
C      -3.44       7.07       8.83
C      -2.96       9.34       9.87
C      -1.42       8.52       8.09
C      -1.83       8.47       6.75
C       0.26       9.50       6.04
C       0.65       9.59       7.39
C      -0.17       9.09       8.39
C      -0.99       8.94       5.74
C       1.16      10.01       4.96
