35

H       7.01      16.56      23.43
F      11.85      19.84      21.20
H       8.38      18.96      26.74
H       9.57      20.45      25.18
F       9.50      22.27      23.58
F      11.39      21.22      23.86
H       8.75      21.02      17.79
H       5.83      22.17      20.70
H       7.27      21.29      22.52
F      10.98      22.22      21.98
H       8.02      18.17      21.85
H      10.25      20.23      19.58
C       7.10      16.66      26.15
C       7.63      17.66      25.19
C       7.53      17.44      23.81
C       8.33      18.78      25.67
C       8.99      19.63      24.78
C       8.90      19.41      23.40
C       8.12      18.34      22.92
C       9.73      20.20      22.36
C      10.87      19.23      21.91
C      10.41      21.48      22.96
C       8.86      20.67      21.18
C       9.28      20.63      19.85
C       8.44      21.08      18.83
F      10.37      18.22      21.14
O       6.69      15.54      25.70
O       7.11      16.95      27.40
C       7.61      21.23      21.48
C       6.79      21.72      20.47
F      11.46      18.64      22.99
C       7.19      21.62      19.13
C       6.28      22.11      18.04
O       6.55      21.93      16.83
O       5.21      22.72      18.47
