35

C       7.26       4.53      22.16
C       8.54       3.96      22.03
C       9.05       3.64      20.77
C       8.29       3.89      19.62
C       7.00       4.43      19.74
C       6.50       4.76      21.00
C       8.86       3.59      18.28
F       5.14       3.75      25.09
F       4.52       3.84      22.99
F       6.14       2.50      23.59
H       7.62       7.11      22.40
H       6.67       9.41      22.37
H       3.19       8.00      24.47
H       9.15       3.75      22.90
H      10.04       3.20      20.68
F       7.09       5.39      25.83
H       5.51       5.20      21.08
F       8.69       5.74      24.38
F       8.16       3.68      24.97
H       6.40       4.59      18.85
H       4.14       5.73      24.55
C       4.87       8.84      23.41
O      10.02       3.07      18.23
O       8.14       3.90      17.26
C       5.95       6.25      23.47
O       3.13      10.33      23.92
O       4.94      11.12      22.79
C       6.12       8.59      22.83
C       6.65       7.30      22.86
C       4.27      10.20      23.36
C       4.71       6.51      24.06
C       4.16       7.79      24.02
C       6.62       4.87      23.51
C       5.60       3.73      23.81
C       7.65       4.91      24.68
