35

C       7.09      19.73      13.09
C       7.62      18.73      14.05
C       7.52      18.95      15.43
C       8.33      17.61      13.58
C       8.99      16.77      14.47
C       8.91      16.99      15.85
C       8.12      18.06      16.32
C       9.73      16.20      16.89
C      10.88      17.18      17.33
C      10.40      14.91      16.29
C       8.86      15.73      18.07
C       9.27      15.78      19.41
C       8.43      15.31      20.42
C       7.18      14.75      20.11
C       6.79      14.67      18.77
C       7.61      15.17      17.76
C       6.28      14.24      21.20
F      11.84      16.59      18.10
F      10.37      18.24      18.03
F      11.51      17.70      16.25
F      10.97      14.14      17.25
F       9.48      14.14      15.65
F      11.38      15.19      15.38
H       6.99      19.83      15.81
H       8.38      17.43      12.51
H       9.58      15.96      14.06
H       8.01      18.22      17.39
H      10.24      16.18      19.68
H       8.74      15.37      21.47
H       5.83      14.21      18.53
H       7.28      15.11      16.73
O       6.67      20.85      13.54
O       7.10      19.45      11.84
O       6.55      14.42      22.41
O       5.22      13.63      20.76
