35

H       6.65       5.87      16.86
H       7.59       8.17      16.84
H       4.09       9.56      14.71
H       3.16       7.28      14.79
F       5.13      11.55      14.14
F       4.53      11.54      16.25
F       6.20      12.79      15.59
F       7.07       9.86      13.41
F       8.67       9.50      14.86
F       8.15      11.56      14.26
H       5.49      10.10      18.16
H       6.40      10.71      20.39
H       9.14      11.52      16.32
H      10.04      12.06      18.54
C       4.25       5.07      15.88
C       4.84       6.44      15.84
C       6.10       6.69      16.41
C       6.62       7.98      16.38
C       5.92       9.03      15.78
C       4.67       8.77      15.19
C       4.13       7.48      15.23
C       6.60      10.41      15.72
C       5.61      11.58      15.41
C       7.63      10.34      14.55
C       7.25      10.75      17.08
C       8.53      11.32      17.19
C       9.05      11.63      18.45
C       8.29      11.39      19.60
C       7.00      10.86      19.49
C       6.49      10.54      18.24
C       8.88      11.69      20.93
O       3.11       4.93      15.32
O       4.92       4.15      16.46
O      10.05      12.18      20.96
O       8.16      11.41      21.97
