444

C       0.32      18.80       0.59
C       0.65      19.15       1.93
C       0.70      18.20       2.98
C       0.43      16.83       2.71
C       0.07      16.46       1.40
C       0.02      17.43       0.37
C       0.20       0.33      38.39
C      19.40       1.71      38.66
C      19.18       2.66      37.64
C      19.20       2.27      36.28
C       0.02       0.90      35.97
C       0.23      19.40      37.01
C       0.49       0.28      20.13
C       0.11       0.73      21.42
C       1.03       0.83      22.49
C       2.40       0.50      22.28
C       2.80       0.02      21.01
C       1.85      19.35      19.97
C      18.98       0.16      19.05
C      17.59      19.42      19.29
C      16.65      19.23      18.26
C      17.08      19.23      16.90
C      18.46       0.01      16.62
C      19.37       0.18      17.69
C      19.06       0.68      25.68
C      18.16       1.26      26.61
C      19.21       0.13      28.45
C       0.71      18.93      27.57
C       0.60      19.21      26.19
C      19.28      19.33      29.84
C      18.43       0.34      32.02
C      19.42      18.98      32.63
C       0.91      18.31      31.78
C       0.86      18.48      30.37
C       1.77      17.84      29.49
C       1.69      18.06      28.10
C      18.96       0.94      24.32
C       0.07      18.85      34.01
C       0.12      19.28       6.31
C      18.81      18.44       7.17
C       0.37       0.02       9.10
C       1.14       0.90       8.28
C       1.00       0.80       6.88
C       0.46       0.09      10.50
C      19.18      18.69      12.63
C       0.53       0.21      13.32
C       1.32       1.09      12.54
C       1.30       1.05      11.13
C       2.06       1.92      10.31
C       1.99       1.85       8.91
C      19.36      19.15       4.95
C       0.54       0.26      14.71
C      18.67       6.08       0.18
C      18.85       6.86       1.34
C      18.40       8.87       0.13
C      18.14       8.15      37.80
C      18.28       6.74      37.84
C      18.38      10.28       0.12
C      18.80      12.33       1.27
C      18.55      13.09       0.11
C      18.15      12.39      37.79
C      18.07      10.98      37.77
C      17.75      10.25      36.61
C      17.78       8.84      36.62
C      18.91       4.69       0.22
C      18.73      14.48       0.07
C      13.20      18.82      19.65
C      12.44      19.05      20.81
C      10.41      18.50      19.68
C      11.12      18.21      18.49
C      12.52      18.38      18.49
C       9.00      18.43      19.71
C       6.97      18.81      20.90
C       6.19      18.47      19.77
C       6.87      18.05      18.60
C       8.28      18.04      18.55
C       9.00      17.69      17.37
C      10.40      17.78      17.34
C      14.59      19.06      19.66
C       4.79      18.60      19.75
C       7.32       4.37       0.59
C       7.65       4.72       1.93
C       7.70       3.78       2.98
C       7.43       2.41       2.71
C       7.07       2.03       1.40
C       7.02       3.00       0.37
C       7.20       5.33      38.39
C       6.97       6.71      38.66
C       6.76       7.66      37.64
C       6.77       7.27      36.28
C       7.02       5.90      35.97
C       7.23       4.97      37.01
C       7.49       5.28      20.13
C       7.11       5.73      21.42
C       8.03       5.83      22.49
C       9.40       5.50      22.28
C       9.80       5.02      21.01
C       8.85       4.92      19.97
C       6.55       5.17      19.05
C       5.17       4.99      19.29
C       4.22       4.80      18.26
C       4.65       4.80      16.90
C       6.03       5.01      16.62
C       6.95       5.18      17.69
C       6.63       5.68      25.68
C       5.74       6.26      26.61
C       6.78       5.13      28.45
C       7.71       4.50      27.57
C       7.60       4.78      26.19
C       6.85       4.90      29.84
C       6.00       5.34      32.02
C       7.00       4.55      32.63
C       7.91       3.88      31.78
C       7.86       4.05      30.37
C       8.77       3.42      29.49
C       8.69       3.64      28.10
C       6.53       5.94      24.32
C       7.07       4.43      34.01
C       7.12       4.85       6.31
C       6.39       4.01       7.17
C       7.37       5.02       9.10
C       8.14       5.90       8.28
C       8.00       5.80       6.88
C       7.46       5.09      10.50
C       6.75       4.26      12.63
C       7.53       5.21      13.32
C       8.32       6.09      12.54
C       8.30       6.05      11.13
C       9.06       6.92      10.31
C       8.99       6.85       8.91
C       6.94       4.72       4.95
C       7.54       5.26      14.71
C       6.24      11.08       0.18
C       6.43      11.86       1.34
C       5.98      13.87       0.13
C       5.71      13.15      37.80
C       5.85      11.74      37.84
C       5.96      15.28       0.12
C       6.37      17.33       1.27
C       6.12      18.09       0.11
C       5.72      17.39      37.79
C       5.65      15.98      37.77
C       5.32      15.25      36.61
C       5.36      13.84      36.62
C       6.48       9.69       0.22
C       6.30       0.06       0.07
C       0.78       4.40      19.65
C       0.01       4.62      20.81
C      17.41       4.08      19.68
C      18.12       3.78      18.49
C       0.09       3.96      18.49
C      16.00       4.00      19.71
C      13.97       4.38      20.90
C      13.19       4.04      19.77
C      13.87       3.62      18.60
C      15.28       3.61      18.55
C      16.00       3.27      17.37
C      17.40       3.36      17.34
C       2.17       4.63      19.66
C      11.79       4.18      19.75
C      14.32       9.37       0.59
C      14.65       9.72       1.93
C      14.70       8.78       2.98
C      14.43       7.41       2.71
C      14.07       7.03       1.40
C      14.02       8.00       0.37
C      14.20      10.33      38.39
C      13.97      11.71      38.66
C      13.76      12.66      37.64
C      13.77      12.27      36.28
C      14.02      10.90      35.97
C      14.23       9.97      37.01
C      14.49      10.28      20.13
C      14.11      10.73      21.42
C      15.03      10.83      22.49
C      16.40      10.50      22.28
C      16.80      10.02      21.01
C      15.85       9.92      19.97
C      13.55      10.16      19.05
C      12.17       9.99      19.29
C      11.22       9.80      18.26
C      11.65       9.80      16.90
C      13.03      10.01      16.62
C      13.95      10.18      17.69
C      13.63      10.68      25.68
C      12.74      11.26      26.61
C      13.78      10.13      28.45
C      14.71       9.50      27.57
C      14.60       9.78      26.19
C      13.85       9.90      29.84
C      13.00      10.34      32.02
C      14.00       9.55      32.63
C      14.91       8.88      31.78
C      14.86       9.05      30.37
C      15.77       8.42      29.49
C      15.69       8.64      28.10
C      13.53      10.94      24.32
C      14.07       9.43      34.01
C      14.12       9.85       6.31
C      13.39       9.01       7.17
C      14.37      10.02       9.10
C      15.14      10.90       8.28
C      15.00      10.80       6.88
C      14.46      10.09      10.50
C      13.75       9.26      12.63
C      14.53      10.21      13.32
C      15.32      11.09      12.54
C      15.30      11.05      11.13
C      16.06      11.92      10.31
C      15.99      11.85       8.91
C      13.94       9.72       4.95
C      14.54      10.26      14.71
C      13.24      16.08       0.18
C      13.43      16.86       1.34
C      12.98      18.87       0.13
C      12.71      18.15      37.80
C      12.85      16.74      37.84
C      12.96       0.86       0.12
C      13.37       2.90       1.27
C      13.12       3.66       0.11
C      12.72       2.97      37.79
C      12.65       1.56      37.77
C      12.32       0.82      36.61
C      12.36      18.84      36.62
C      13.48      14.69       0.22
C      13.30       5.06       0.07
C       7.78       9.40      19.65
C       7.01       9.62      20.81
C       4.98       9.08      19.68
C       5.69       8.78      18.49
C       7.09       8.96      18.49
C       3.58       9.00      19.71
C       1.54       9.38      20.90
C       0.76       9.04      19.77
C       1.45       8.62      18.60
C       2.86       8.61      18.55
C       3.57       8.27      17.37
C       4.98       8.36      17.34
C       9.17       9.63      19.66
C      18.79       9.18      19.75
H       0.90       0.69       2.17
H       0.46      18.44      36.75
H      18.82       4.12      35.47
H      19.00       2.94      34.34
H       0.33      14.97       3.56
H       0.77      16.15       4.62
H      19.11      17.14      38.32
H      19.29       2.01       0.77
H      18.59       1.07      21.58
H       0.92       0.36      17.45
H      15.24      18.89      16.06
H      16.45      19.03      14.95
H       4.24       0.40      23.18
H       3.06       0.95      24.18
H       2.14      18.94      19.08
H      17.27      19.32      20.25
H       1.25      18.75      25.53
H      17.43       1.90      26.31
H       1.64      17.72      32.19
H      17.72       0.84      32.58
H      18.16       1.45      24.02
H       0.66      18.15      34.39
H       1.54       1.42       6.26
H      18.16      17.74       6.81
H       1.91       1.79      13.01
H      18.60      18.01      13.12
H      18.44      19.24       4.59
H       1.18       0.89      15.15
H      18.12       6.20      36.99
H      19.14       6.44       2.22
H      17.97      12.92      36.93
H      19.09      12.76       2.15
H      19.17       4.26       1.11
H      18.56      14.98      38.05
H      13.05      18.20      17.63
H      12.87      19.37      21.68
H       6.33      17.81      17.77
H       6.54      19.12      21.77
H      15.03      19.35      20.54
H       4.29      18.38      18.89
H       7.90       5.69       2.17
H       7.46       4.02      36.75
H       6.39       9.12      35.47
H       6.57       7.94      34.34
H       7.33       0.54       3.56
H       7.77       1.72       4.62
H       6.68       2.71      38.32
H       6.86       7.01       0.77
H       6.16       6.07      21.58
H       7.92       5.36      17.45
H       2.81       4.47      16.06
H       4.02       4.61      14.95
H      11.24       5.40      23.18
H      10.06       5.95      24.18
H       9.14       4.51      19.08
H       4.84       4.89      20.25
H       8.25       4.33      25.53
H       5.01       6.90      26.31
H       8.64       3.29      32.19
H       5.30       5.84      32.58
H       5.73       6.45      24.02
H       7.66       3.72      34.39
H       8.54       6.42       6.26
H       5.74       3.31       6.81
H       8.91       6.79      13.01
H       6.17       3.58      13.12
H       6.01       4.81       4.59
H       8.18       5.89      15.15
H       5.69      11.20      36.99
H       6.72      11.44       2.22
H       5.54      17.92      36.93
H       6.66      17.76       2.15
H       6.75       9.26       1.11
H       6.14       0.55      38.05
H       0.62       3.77      17.63
H       0.45       4.94      21.68
H      13.33       3.38      17.77
H      13.54       4.70      21.77
H       2.60       4.92      20.54
H      11.29       3.96      18.89
H      14.90      10.69       2.17
H      14.46       9.02      36.75
H      13.39      14.12      35.47
H      13.57      12.94      34.34
H      14.33       5.54       3.56
H      14.77       6.72       4.62
H      13.68       7.71      38.32
H      13.86      12.01       0.77
H      13.16      11.07      21.58
H      14.92      10.36      17.45
H       9.81       9.47      16.06
H      11.02       9.61      14.95
H      18.24      10.40      23.18
H      17.06      10.95      24.18
H      16.14       9.51      19.08
H      11.84       9.89      20.25
H      15.25       9.33      25.53
H      12.01      11.90      26.31
H      15.64       8.29      32.19
H      12.30      10.84      32.58
H      12.73      11.45      24.02
H      14.66       8.72      34.39
H      15.54      11.42       6.26
H      12.74       8.31       6.81
H      15.91      11.79      13.01
H      13.17       8.58      13.12
H      13.01       9.81       4.59
H      15.18      10.89      15.15
H      12.69      16.20      36.99
H      13.72      16.44       2.22
H      12.54       3.49      36.93
H      13.66       3.34       2.15
H      13.75      14.26       1.11
H      13.14       5.55      38.05
H       7.62       8.77      17.63
H       7.45       9.94      21.68
H       0.91       8.38      17.77
H       1.11       9.70      21.77
H       9.60       9.92      20.54
H      18.29       8.96      18.89
N       0.50      15.91       3.72
N      18.98       3.18      35.28
N       0.00       0.53      34.69
N      18.94       3.96      37.94
N      19.17      15.16       1.15
N       0.86      18.61       4.23
N       3.31       0.62      23.30
N      16.18      19.04      15.89
N      18.86       0.02      15.35
N      15.33      19.03      18.53
N       4.10      19.11      20.80
N       0.63       1.23      23.70
N      18.27       0.97      27.93
N      18.40       0.50      30.68
N      18.96      18.55       8.51
N      19.16      18.67      11.27
N      18.74       8.21       1.27
N      18.72      10.98       1.24
N      11.09      18.90      20.78
N       8.32      18.79      20.83
N       7.50       1.48       3.72
N       6.56       8.18      35.28
N       7.00       5.53      34.69
N       6.52       8.96      37.94
N       6.74       0.74       1.15
N       7.86       4.19       4.23
N      10.31       5.62      23.30
N       3.76       4.61      15.89
N       6.43       5.02      15.35
N       2.91       4.61      18.53
N      11.10       4.68      20.80
N       7.63       6.23      23.70
N       5.84       5.97      27.93
N       5.97       5.50      30.68
N       6.54       4.13       8.51
N       6.73       4.24      11.27
N       6.32      13.21       1.27
N       6.29      15.98       1.24
N      18.09       4.48      20.78
N      15.32       4.36      20.83
N      14.50       6.48       3.72
N      13.56      13.18      35.28
N      14.00      10.53      34.69
N      13.52      13.96      37.94
N      13.74       5.74       1.15
N      14.86       9.19       4.23
N      17.31      10.62      23.30
N      10.76       9.61      15.89
N      13.43      10.02      15.35
N       9.91       9.61      18.53
N      18.10       9.68      20.80
N      14.63      11.23      23.70
N      12.84      10.97      27.93
N      12.97      10.50      30.68
N      13.54       9.13       8.51
N      13.73       9.24      11.27
N      13.32      18.21       1.27
N      13.29       1.55       1.24
N       5.67       9.48      20.78
N       2.89       9.36      20.83
O       2.74      17.02      29.97
O       2.59      17.45      27.30
O       2.88       2.85      10.87
O       2.73       2.71       8.17
O      17.44      10.88      35.45
O      17.51       8.18      35.47
O       8.34      17.31      16.25
O      11.05      17.48      16.19
O       9.74       2.60      29.97
O       9.59       3.02      27.30
O       9.88       7.85      10.87
O       9.73       7.71       8.17
O       5.01      15.88      35.45
O       5.08      13.18      35.47
O      15.34       2.88      16.25
O      18.05       3.05      16.19
O      16.74       7.60      29.97
O      16.59       8.02      27.30
O      16.88      12.85      10.87
O      16.73      12.71       8.17
O      12.01       1.46      35.45
O      12.08      18.18      35.47
O       2.92       7.88      16.25
O       5.62       8.05      16.19
