14

C       2.37       3.22       1.12
C       1.68       2.35       0.25
C       3.44       3.98       0.63
C       2.07       2.23      -1.08
C       3.15       2.99      -1.56
C       3.83       3.87      -0.71
C       1.90       3.38       2.52
O       2.65       3.97       3.41
H       0.85       1.77       0.65
H       3.94       4.67       1.29
H       1.56       1.53      -1.73
O       0.73       2.99       2.83
H       3.47       2.88      -2.60
H       4.66       4.46      -1.07
