14

C       6.56      14.46      17.04
H       5.00      14.95      22.15
H       3.80      13.37      20.63
O       5.81      13.86      16.15
O       7.73      14.84      16.73
C       4.64      13.97      20.27
C       6.39      15.60      20.64
C       6.10      14.61      18.44
C       6.78      15.48      19.30
C       5.03      13.85      18.93
H       7.62      16.06      18.91
C       5.31      14.84      21.12
H       4.52      13.16      18.27
H       6.90      16.30      21.29
