22

C       1.37       1.07       9.03
C      -0.58       0.12       7.98
O       1.09       2.30       5.64
H       0.91      -0.89      13.65
C       1.67       1.72       7.86
H      -2.00      -1.35       9.71
H       1.52       0.38      11.61
H      -2.48      -2.48      11.86
C       0.32      -0.93      12.74
C      -0.14      -0.39      10.39
C      -1.31      -1.21      10.53
C       0.64      -0.26      11.58
C      -1.61      -1.86      11.70
H      -0.85       0.76       5.91
H       2.06       1.21       9.85
H      -1.46      -0.51       7.95
N      -0.77      -1.75      12.79
H       2.54       2.35       7.70
N       0.83       1.62       6.77
O      -1.03      -2.44      13.91
C      -0.26       0.79       6.82
C       0.20       0.25       9.17
