14

H       3.40      16.08      10.46
H       0.30      13.18      11.04
H       2.67      16.39       8.08
H       0.77      15.06       7.19
C       1.88      14.62      10.89
H      -0.43      13.45       8.68
C       2.56      15.51      10.05
C       0.81      13.88      10.39
C       2.16      15.67       8.73
C       1.08      14.93       8.23
C       0.41      14.04       9.06
C       2.36      14.44      12.29
O       1.62      13.83      13.17
O       3.53      14.82      12.58
