22

O       1.09       6.62       4.15
C      -0.27       8.13       2.96
C       0.19       8.66       0.61
C       1.35       7.84       0.76
H       0.87       9.79      -3.88
C      -0.59       8.80       1.81
H      -2.02      10.26       0.07
H       1.49       8.53      -1.83
C       1.65       7.20       1.93
H      -2.51      11.39      -2.08
H       2.53       6.57       2.08
C       0.29       9.83      -2.96
C      -0.17       9.30      -0.61
C      -1.33      10.12      -0.76
C       0.61       9.17      -1.81
C      -1.63      10.77      -1.93
N      -0.80      10.66      -3.02
H      -0.85       8.17       3.88
N       0.82       7.30       3.02
H       2.05       7.71      -0.07
H      -1.47       9.44       1.83
O      -1.07      11.34      -4.15
