192

C       3.47       7.65       0.61
C       2.61       8.48       1.37
C       2.57       8.47       2.78
C       3.52       7.62       3.44
C       4.43       6.78       2.73
C       4.34       6.79       1.32
C       3.45       7.66      30.04
C       2.27       7.90      29.31
C       2.24       7.99      27.89
C       3.45       7.67      27.20
C       4.66       7.37      27.89
C       4.64       7.44      29.30
C      13.30       7.76      10.90
C      14.45       8.09      11.66
C      14.46       8.12      13.07
C      13.25       7.72      13.73
C      12.07       7.36      13.02
C      12.12       7.43      11.61
C      13.32       7.77       9.45
C      14.12       8.67       8.72
C      14.21       8.65       7.31
C      13.33       7.77       6.62
C      12.47       6.86       7.30
C      12.54       6.85       8.71
C      -1.41      16.31      21.19
C      -1.70      15.15      21.95
C      -1.68      15.12      23.37
C      -1.42      16.36      24.02
C       8.75       0.45      23.32
C       8.79       0.36      21.91
C      -1.41      16.29      19.75
C      -1.02      15.14      19.02
C      -1.09      15.07      17.60
C      -1.41      16.28      16.91
C       8.13       0.35      17.59
C       8.07       0.30      19.01
C       7.72       5.70      26.58
C       8.12       6.25      25.33
C       8.65       5.39      24.32
C       8.74       3.99      24.59
C       9.12       5.98      23.11
C       9.06       7.36      22.90
C       8.54       8.20      23.89
C       8.09       7.65      25.11
C       8.91       2.93      23.64
C       6.86       6.28      27.56
C       9.49       5.04       6.00
C       9.78       4.42       4.75
C       8.76       4.40       3.73
C       7.50       5.02       4.00
C       9.04       3.70       2.52
C      10.27       3.07       2.31
C      11.26       3.09       3.30
C      11.00       3.75       4.52
C       6.51       5.41       3.05
C      10.42       5.50       6.97
C       8.04       3.84      16.29
C       7.36       3.90      15.04
C       7.84       4.79      14.02
C       9.01       5.58      14.29
C       7.10       4.90      12.82
C       5.94       4.15      12.60
C       5.47       3.29      13.60
C       6.16       3.18      14.81
C       9.84       6.24      13.34
C       7.97       2.81      17.26
C      -0.75       9.79      26.62
C      -1.20       9.26      25.37
C      -1.69      10.16      24.36
C      -1.75      11.56      24.65
C      -2.04       9.58      23.10
C      -2.00       8.20      22.88
C      -1.60       7.34      23.90
C      -1.21       7.86      25.14
C      -2.05      12.66      23.78
C       0.08       9.16      27.58
C      -2.51      10.34       6.03
C      -2.74      10.98       4.78
C      -1.72      10.96       3.77
C      -0.48      10.30       4.06
C      -2.03      11.55       2.51
C      -3.26      12.20       2.28
C      -4.20      12.30       3.31
C      -3.94      11.70       4.55
C       0.63      10.02       3.20
C      -3.47       9.94       7.00
C      -1.15      11.58      16.33
C      -0.48      11.46      15.08
C      -1.01      10.59      14.06
C      -2.20       9.85      14.35
C      -0.34      10.58      12.80
C       0.83      11.31      12.58
C       1.39      12.08      13.60
C       0.74      12.15      14.84
C      -3.00       9.03      13.49
C      -1.02      12.62      17.29
H       1.96       9.07       0.86
H       5.52       7.38      29.80
H       4.21       8.38       5.03
H       3.22       6.77      25.55
H       4.86       6.10       0.79
H       1.38       7.96      29.81
H       5.72       7.17      26.21
H       1.19       8.25      26.22
H       1.63       8.88       4.47
H       5.14       5.94       4.38
H      -4.49       8.35      11.15
H      12.05       6.11       9.22
H      13.57       6.74      15.32
H      12.66       8.41       4.97
H      11.27       7.32      11.08
H      -5.16       9.41       9.22
H      11.76       6.05       5.62
H      -4.82       9.44       5.63
H      -4.49       8.74      14.76
H      10.98       7.16      14.68
H      -1.90      14.29      21.44
H       7.68       1.09      19.51
H      -2.43      16.58      25.61
H      -0.52      16.53      15.26
H       9.13       1.16      21.38
H      -0.64      14.35      19.52
H       7.77       1.37      15.92
H      -0.79      14.03      15.93
H      -1.58      14.09      25.06
H       9.12       1.48      24.97
H       9.60       5.42      22.40
H       9.43       7.77      22.04
H       8.53       9.22      23.76
H       7.80       8.30      25.84
H       8.32       3.57       1.81
H      10.44       2.55       1.44
H      12.14       2.59       3.16
H      11.71       3.68       5.25
H       7.35       5.59      12.10
H       5.40       4.27      11.74
H       4.60       2.77      13.46
H       5.75       2.60      15.55
H      -2.36      10.15      22.32
H      -2.27       7.82      21.97
H      -1.59       6.32      23.75
H      -0.95       7.20      25.88
H      -1.39      11.53       1.73
H      -3.45      12.63       1.37
H      -5.08      12.80       3.15
H      -4.64      11.81       5.28
H      -0.68      10.03      12.02
H       1.30      11.26      11.67
H       2.26      12.59      13.45
H       1.19      12.70      15.58
N       5.78       7.03      27.17
N       1.13       8.38      27.18
N       1.63       9.14       3.54
N       5.33       6.02       3.44
N      11.61       6.06       6.58
N      -4.68       9.42       6.59
N      -4.26       8.60      13.83
N      10.96       6.95      13.73
N       7.86       1.50      16.88
N      -0.87      13.92      16.89
N      -1.80      13.97      24.12
N       8.96       1.61      24.03
N       8.47       3.61      25.86
N       8.00       4.39      26.79
N       7.31       5.44       5.27
N       8.22       5.45       6.20
N       9.47       5.53      15.56
N       9.03       4.74      16.49
N      -1.39      11.91      25.91
N      -0.94      11.11      26.82
N      -0.35       9.82       5.32
N      -1.27       9.84       6.24
N      -2.68       9.98      15.62
N      -2.21      10.76      16.53
O       3.59       7.65       4.80
O       3.45       7.69      25.84
O      13.25       7.64      15.09
O      13.34       7.76       5.25
O      -1.49      16.41      25.39
O      -1.43      16.27      15.55
O       8.63       3.23      22.35
O       6.82       5.65      28.76
O       6.91       5.52       1.77
O       9.89       5.85       8.17
O       9.73       5.85      12.06
O       8.54       3.08      18.46
O      -2.64      12.42      22.59
O       0.16       9.77      28.79
O       0.72      10.66       2.02
O      -2.98       9.56       8.20
O      -2.49       8.63      12.31
O      -1.59      12.37      18.51
