18

C       4.44       6.71       7.88
N       4.17       5.49       7.35
N       3.17       3.86       0.11
Zn       3.61       5.26       5.38
Zn       3.12       4.46       2.08
C       0.77       5.48       2.16
O       1.60       5.58       5.35
O       3.66       3.25       5.29
C       5.54       5.91       3.14
C       4.08       4.40      -0.72
O       3.22       2.77       3.11
O       1.91       6.10       2.12
O       4.93       5.33       2.18
C       2.20       3.06      -0.41
C       1.63       6.88       5.30
O       5.16       5.94       4.36
C       3.43       2.45       4.32
C       4.10       4.43       8.19
