26

H       6.44      10.00      12.42
H       4.76       8.61       7.64
C       1.16      11.43       5.76
C       1.88      11.17       6.91
C       4.65       8.79       9.78
H       3.13       8.68       8.29
C       3.25      10.90       6.83
C       5.43       9.67      10.53
H       4.89      10.70       5.43
C       4.78       7.28      11.66
C       5.85       9.31      11.82
C       4.13       9.12       8.40
H       3.74       6.82       9.83
H       3.44      11.15       3.42
C       3.82      10.88       5.55
C       4.34       7.56      10.37
C       3.04      11.14       4.43
C       4.06      10.63       8.07
N       5.53       8.13      12.39
N       1.72      11.42       4.53
H       5.07      11.04       7.95
H       3.60      11.16       8.92
H       0.11      11.71       5.80
H       1.38      11.21       7.88
H       5.72      10.65      10.16
H       4.55       6.33      12.14
