24

C       2.07       1.73      16.67
C       5.74       6.56      11.53
H       3.40       3.18      15.90
C       4.95       5.06       9.94
H       1.26       0.68      13.10
C       2.98       2.83      13.19
C       1.51       1.01      14.10
H       3.73       4.47      14.32
C       2.68       2.41      15.64
H       0.25      -0.48      15.03
H       2.87       2.40      12.20
C       4.24       4.37      10.91
C       2.39       2.10      14.30
C       3.63       4.02      13.33
C       5.02       5.92      12.53
H       2.29       2.00      17.70
N       5.74       6.13      10.23
N       1.18       0.72      16.46
H       4.89       4.74       8.91
H       6.39       7.40      11.76
H       5.10       6.31      13.54
H       3.66       3.49      10.62
C       4.28       4.76      12.26
C       0.93       0.36      15.18
