41

H       9.20      12.94      13.17
C       6.28      12.90       9.61
O       7.89       8.64      11.41
O       4.19      18.94       7.93
C       1.99      12.50      11.13
H       3.74      12.04      10.01
C       8.08      15.64      11.43
H       8.18      16.72      11.40
C       8.67      13.52      12.42
H       6.81      15.58       9.71
C       7.89      12.84      11.47
C       3.58      16.96       9.21
H       8.47      10.85      12.15
C       1.07      13.48      11.55
C       2.57      16.54      10.04
H       1.86      17.27      10.42
H       0.60      15.59      11.52
C       7.29      15.00      10.49
C       5.42      13.59       8.59
C       6.19      11.44       9.64
H       0.20      13.21      12.13
C       7.84      11.42      11.46
H       6.05      14.14       7.87
C       7.21       9.24      10.55
H       1.81      11.46      11.40
C       3.33      14.19       9.96
C       7.07      10.72      10.57
H       4.92      12.77       8.04
H       9.32      15.41      13.19
C       8.75      14.90      12.42
C       3.61      18.42       8.90
C       2.39      15.18      10.41
C       4.55      15.98       8.68
C       1.29      14.81      11.20
C       7.14      13.58      10.50
C       3.09      12.84      10.36
O       5.52      16.31       7.94
O       6.63       8.67       9.52
O       2.91      19.15       9.75
C       4.40      14.58       9.11
O       5.32      10.85       8.94
