41

O       7.11      12.21       2.46
H       5.67       5.44       4.27
C       7.78      11.61       1.60
C      11.40       3.88       0.24
H      13.13       3.57       1.44
H       6.49      10.00       3.21
C      13.90       7.37       2.57
C      12.59       5.66       1.43
H      13.14       9.38       2.42
C      12.42       4.30       1.06
H       8.18       5.29       0.78
H      10.04       8.06      -0.91
C      10.42       4.85      -0.26
C       9.54       7.25      -0.36
H      14.78       7.65       3.14
C       6.30       7.33       3.49
H       5.77       7.91       4.25
C       6.23       5.95       3.49
H      11.21       8.79       1.02
C      10.56       6.26       0.16
H      14.39       5.27       2.54
C       7.91      10.13       1.63
H       8.89       6.70      -1.06
H       6.81       4.14       2.47
C      11.36       2.43      -0.05
C       7.14       9.44       2.54
C       8.69       7.96       0.66
C       7.70       5.87       1.55
C       7.85       7.28       1.57
C      12.97       8.35       2.15
C      11.88       8.00       1.37
C       6.91       5.22       2.49
C       7.10       8.02       2.55
C       8.78       9.42       0.69
O       8.35      12.21       0.58
C      13.69       6.04       2.22
O       9.62      10.04      -0.03
C      11.65       6.65       0.97
O      10.78       1.90      -1.02
O      12.06       1.69       0.80
O       9.43       4.50      -0.97
