41

O       3.24      11.99       1.02
C       2.62      10.01      -0.26
O       5.69       1.69      -0.57
H       3.97       5.84       0.91
C       3.45       7.65      -0.16
O       6.90       1.69      -2.47
H       5.12       7.20       1.05
H       2.80       5.12      -1.01
C       6.10       3.77      -1.63
C       3.62       9.05       0.24
H      -0.38       8.64      -2.54
C       7.78       7.95      -3.49
C       1.41       8.24      -1.42
H      -0.77       6.25      -3.14
C       1.59       9.60      -1.06
H       5.84       8.61      -0.78
C       6.17       6.61      -1.57
C       1.04       5.56      -2.15
C       2.36       7.25      -0.97
H       7.51       3.90      -3.22
H       0.87       4.52      -2.43
C       5.32       5.93      -0.67
H       8.35       8.46      -4.26
H       8.24       5.99      -4.25
C       7.71       6.56      -3.49
C       0.31       7.86      -2.21
C       7.10       8.67      -2.50
H       0.88      10.34      -1.42
H       7.20       9.76      -2.47
C       2.13       5.90      -1.36
C       4.47       6.65       0.35
C       5.23       4.47      -0.69
C       2.67      11.47       0.05
C       6.24       2.28      -1.60
C       0.11       6.54      -2.56
C       6.92       5.88      -2.55
C       6.32       8.03      -1.55
O       4.62       9.42       0.91
O       2.00      12.22      -0.82
O       4.40       3.86       0.05
C       6.87       4.46      -2.53
