160

Eu       7.25      16.88      15.60
Eu       7.25       0.62       1.90
Eu       1.28       1.90      16.88
Eu       1.28      15.60       0.62
Eu       5.55       9.37       6.85
Eu       5.55       8.13      10.65
Eu       2.98       6.85       8.13
Eu       2.98      10.65       9.37
H       4.85       4.24      13.24
H       2.72       2.98       9.72
H       2.12       0.82      10.85
H       2.95       0.36      13.15
H       6.83       2.03      16.80
H       4.85      13.26       4.26
H       2.72      14.52       7.78
H       2.12      16.68       6.66
H       2.95      17.14       4.35
H       6.84      15.47       0.70
H       3.68       4.26       4.24
H       5.82       7.78       2.98
H       6.41       6.66       0.82
H       5.58       4.35       0.36
H       1.70       0.70       2.03
H       3.68      13.24      13.26
H       5.82       9.72      14.53
H       6.41      10.84      16.68
H       5.58      13.15      17.14
H       1.70      16.80      15.47
H       7.95       4.51       4.49
H       1.55       5.77       0.97
H       2.15       7.93       2.09
H       1.31       8.39       4.40
H       5.96       6.72       8.05
H       7.95      12.99      13.01
H       1.55      11.73      16.53
H       2.15       9.57      15.41
H       1.31       9.12      13.10
H       5.96      10.79       9.45
H       0.58       4.49      12.99
H       6.98       0.97      11.73
H       6.39       2.09       9.57
H       7.22       4.40       9.12
H       2.57       8.05      10.79
H       0.58      13.01       4.51
H       6.98      16.53       5.77
H       6.39      15.41       7.93
H       7.22      13.10       8.39
H       2.57       9.45       6.72
C       3.94       2.29      13.31
C       4.27       3.50      12.70
C       3.83       3.73      11.39
C       4.18       4.99      10.67
C       3.06       2.76      10.73
C       2.73       1.56      11.36
C       3.18       1.30      12.65
C       3.94      15.22       4.19
C       4.27      14.01       4.80
C       3.83      13.78       6.11
C       4.18      12.51       6.83
C       3.06      14.74       6.77
C       2.73      15.94       6.14
C       3.18      16.20       4.85
C       4.60       4.19       2.29
C       4.26       4.80       3.50
C       4.70       6.11       3.73
C       4.35       6.83       4.99
C       5.47       6.77       2.76
C       5.80       6.14       1.56
C       5.35       4.85       1.30
C       4.60      13.31      15.22
C       4.26      12.70      14.01
C       4.70      11.39      13.78
C       4.35      10.67      12.51
C       5.47      10.73      14.74
C       5.80      11.36      15.94
C       5.35      12.65      16.20
C       0.33       6.46       4.56
C       8.53       5.26       3.95
C       0.43       5.03       2.64
C       0.09       3.76       1.92
C       1.21       5.99       1.98
C       1.54       7.19       2.61
C       1.09       7.45       3.90
C       0.33      11.04      12.94
C       8.53      12.25      13.55
C       0.43      12.48      14.86
C       0.09      13.75      15.58
C       1.21      11.51      15.53
C       1.53      10.31      14.90
C       1.09      10.06      13.60
C       8.20       4.56      11.04
C       0.00       3.95      12.25
C       8.10       2.64      12.48
C       8.44       1.92      13.75
C       7.33       1.98      11.51
C       7.00       2.61      10.31
C       7.45       3.90      10.06
C       8.20      12.94       6.46
C       0.00      13.55       5.26
C       8.10      14.86       5.03
C       8.44      15.58       3.76
C       7.33      15.53       5.99
C       7.00      14.90       7.19
C       7.45      13.60       7.45
S       4.48       1.93      14.96
S       4.48      15.57       2.54
S       4.05       2.54       1.93
S       4.05      14.96      15.57
S       8.31       6.82       6.21
S       8.31      10.68      11.29
S       0.22       6.21      10.68
S       0.22      11.29       6.82
O       5.49       0.85      14.78
O       3.27       1.39      15.65
O       5.03       3.14      15.58
O       4.68       5.96      11.34
O       3.93       5.04       9.42
O       7.46       1.33      17.05
O       5.49      16.66       2.72
O       3.27      16.11       1.86
O       5.03      14.36       1.92
O       4.68      11.54       6.17
O       3.93      12.46       8.08
O       7.46      16.18       0.46
O       3.04       2.72       0.85
O       5.26       1.86       1.39
O       3.50       1.92       3.14
O       3.85       6.17       5.96
O       4.60       8.08       5.04
O       1.07       0.46       1.33
O       3.04      14.78      16.65
O       5.26      15.65      16.11
O       3.51      15.58      14.36
O       3.85      11.34      11.54
O       4.60       9.42      12.46
O       1.07      17.04      16.17
O       7.31       7.90       6.03
O       0.99       7.36       6.89
O       7.77       5.61       6.83
O       8.12       2.79       2.59
O       0.33       3.71       0.67
O       5.34       7.42       8.29
O       7.31       9.60      11.47
O       1.00      10.14      10.61
O       7.77      11.89      10.67
O       8.12      14.71      14.92
O       0.33      13.79      16.83
O       5.34      10.08       9.21
O       1.23       6.03       9.60
O       7.54       6.89      10.14
O       0.76       6.83      11.89
O       0.41       2.59      14.71
O       8.20       0.67      13.79
O       3.20       8.29      10.08
O       1.23      11.47       7.90
O       7.54      10.61       7.36
O       0.76      10.67       5.61
O       0.42      14.92       2.79
O       8.20      16.83       3.71
O       3.19       9.21       7.42
