15

N      -1.62       3.52       8.43
N      -1.97       3.62       5.69
N      -0.74       1.28       5.05
C      -2.22       4.74       7.81
C      -2.95       4.35       6.53
C      -2.49       2.91       4.49
C      -1.32       2.10       3.94
H      -1.38       5.40       7.58
H      -2.89       5.25       8.51
H      -3.36       5.23       6.01
H      -3.76       3.66       6.76
H      -2.88       3.61       3.74
H      -3.28       2.23       4.81
H      -1.65       1.46       3.11
H      -0.53       2.77       3.58
