15

H       7.88       1.52       5.70
H       8.28       3.11       4.98
H       7.39       3.19       8.01
H       7.80       4.53       6.90
H       6.19       5.35       8.58
H       5.05       4.03       8.16
N       6.13       3.25       3.30
N       6.51       3.12       6.06
N       5.25       5.50       6.66
C       6.74       2.05       3.90
C       7.47       2.41       5.20
C       7.01       3.86       7.24
C       5.84       4.69       7.77
H       5.91       1.36       4.13
H       7.43       1.55       3.21
