15

N       7.37      -1.23       4.47
N       7.01      -3.66       5.75
N       8.25      -3.05       8.10
H       7.61      -2.91       3.26
H       6.09      -2.03       2.93
H       5.62      -4.18       4.20
H       5.23      -2.74       5.19
H       6.11      -5.34       6.73
H       5.71      -3.72       7.39
H       7.33      -4.81       8.91
H       8.45      -5.07       7.54
C       6.77      -2.37       3.72
C       6.04      -3.29       4.70
C       6.50      -4.34       6.97
C       7.67      -4.42       7.94
