20

Co       5.35       1.49      11.81
Co       4.92       3.42      14.37
C       4.85       4.52      11.73
C       5.10      -0.84      11.00
C       7.36       2.52      14.05
C       2.77       1.83      13.51
C       7.86       0.55      10.15
C       8.24       2.49      10.95
C       5.42       1.23      16.31
C       4.82       2.91      17.51
N       7.26       1.61      10.79
N       5.07       2.56      16.24
O       4.88       3.36      11.20
O       4.99       4.79      12.98
O       5.57      -0.66      12.18
O       4.76       0.16      10.28
O       6.21       2.03      13.65
O       7.40       3.66      14.57
O       3.03       2.93      14.11
O       3.56       1.16      12.78
