264

C       7.15       7.58      14.41
C       6.25       8.32      13.61
C       5.71       7.78      12.42
C       6.18       6.53      11.97
C       7.13       5.80      12.71
C       7.55       6.29      13.98
C      12.65      12.71      14.35
C      13.77      12.02      13.84
C      14.44      12.47      12.68
C      13.97      13.64      12.04
C      12.86      14.34      12.53
C      12.20      13.87      13.69
C      12.58       7.15       5.82
C      13.86       7.54       6.28
C      14.35       7.09       7.54
C      13.55       6.16       8.27
C      12.35       5.65       7.75
C      11.86       6.17       6.54
C       7.55      12.44       5.64
C       6.22      12.11       6.02
C       5.57      12.81       7.06
C       6.20      13.96       7.61
C       7.49      14.36       7.20
C       8.18      13.54       6.27
C       0.91       9.99       9.32
C       1.59      11.15       8.86
C       2.98      11.33       9.06
C       3.68      10.37       9.81
C       3.08       9.14      10.17
C       1.71       8.93       9.86
C      19.03       9.97       9.43
C      18.35      11.06      10.06
C      17.03      10.88      10.57
C      16.37       9.66      10.35
C      16.93       8.66       9.52
C      18.27       8.82       9.10
C      16.14       7.54       9.19
C       3.86       8.16      10.83
C       3.63      12.49       8.61
C      16.35      11.92      11.23
C       9.47       0.84      10.07
C       9.05       1.54      11.23
C       8.99       2.95      11.27
C       9.57       3.67      10.20
C      10.08       3.02       9.06
C       9.91       1.61       8.95
C       9.61      18.96      10.08
C      10.28      18.30      11.16
C      10.79      16.99      10.99
C      10.54      16.31       9.78
C       9.66      16.83       8.82
C       9.23      18.17       8.97
C       9.28      15.99       7.75
C      10.74       3.80       8.09
C       8.45       3.66      12.36
C      11.47      16.32      12.03
C      10.00       9.57       0.89
C      11.14       9.15       1.63
C      11.14       9.09       3.04
C      10.04       9.65       3.73
C       8.92      10.17       3.04
C       8.86      10.02       1.63
C      10.04       9.67      19.02
C      11.16      10.25      18.34
C      11.03      10.71      17.00
C       9.82      10.47      16.31
C       8.81       9.67      16.87
C       8.92       9.29      18.22
C       7.70       9.33      16.07
C       7.91      10.83       3.79
C      12.21       8.53       3.76
C      12.10      11.31      16.31
C      15.15      15.58       2.86
C      14.25      16.32       2.06
C      13.71      15.78       0.87
C      14.18      14.53       0.42
C      15.13      13.80       1.16
C      15.55      14.29       2.43
C       1.10       1.16       2.80
C       2.22       0.47       2.29
C       2.89       0.92       1.13
C       2.42       2.09       0.49
C       1.31       2.79       0.98
C       0.65       2.32       2.14
C       1.03      15.15      13.82
C       2.31      15.54      14.28
C       2.80      15.09      15.54
C       2.01      14.16      16.27
C       0.80      13.65      15.75
C       0.31      14.17      14.54
C      15.55       0.89      13.64
C      14.22       0.57      14.02
C      13.57       1.26      15.06
C      14.20       2.41      15.61
C      15.49       2.81      15.20
C      16.18       1.99      14.27
C       8.91      17.99      17.32
C       9.59      19.15      16.86
C      10.98      19.33      17.06
C      11.68      18.37      17.81
C      11.08      17.14      18.17
C       9.71      16.93      17.86
C       7.48      17.97      17.43
C       6.80      19.06      18.06
C       5.48      18.88      18.57
C       4.82      17.66      18.35
C       5.38      16.66      17.52
C       6.72      16.82      17.10
C       4.59      15.54      17.19
C      11.86      16.16      18.83
C      11.63       0.94      16.61
C       4.80       0.37      19.23
C      17.47       8.84      18.07
C      17.05       9.54      19.23
C      16.99      10.95      19.27
C      17.57      11.67      18.20
C      18.08      11.02      17.06
C      17.91       9.61      16.95
C      17.61       7.41      18.08
C      18.28       6.76      19.16
C      18.79       5.44      18.99
C      18.54       4.76      17.78
C      17.66       5.28      16.82
C      17.23       6.62      16.97
C      17.28       4.44      15.75
C      18.74      11.80      16.09
C      16.45      11.66       0.81
C      19.47       4.77       0.48
C      18.00      17.57       8.89
C      19.14      17.15       9.63
C      19.14      17.09      11.04
C      18.04      17.65      11.73
C      16.92      18.17      11.04
C      16.86      18.02       9.63
C      18.04      17.67       7.47
C      19.16      18.25       6.79
C      19.03      18.71       5.45
C      17.82      18.47       4.76
C      16.81      17.67       5.32
C      16.92      17.29       6.67
C      15.70      17.33       4.52
C      15.91      18.83      11.79
C       0.66      16.53      11.76
C       0.55      19.31       4.76
H       5.88       6.18      11.06
H       8.28       5.78      14.49
H       5.93       9.24      13.91
H      14.39      13.93      11.15
H      11.34      14.32      14.00
H      14.05      11.12      14.26
H      13.89       5.81       9.17
H      10.93       5.88       6.21
H      14.36       8.28       5.79
H       5.72      14.48       8.34
H       9.13      13.78       5.98
H       5.79      11.27       5.64
H       1.06      11.89       8.39
H       4.68      10.51       9.98
H      15.40       9.54      10.66
H      18.71       8.06       8.57
H       1.23       7.11       9.74
H      18.82      12.88       9.83
H      15.56       7.18       9.95
H       3.55       7.19      10.84
H       4.09      13.06       9.32
H      16.65      12.89      11.12
H       8.65       1.02      12.01
H       9.63       4.69      10.26
H      10.86      15.33       9.68
H       8.66      18.58       8.22
H       9.85       1.05       7.14
H      10.11      18.80      12.98
H      10.00      15.35       7.41
H      10.82       3.46       7.12
H       8.31       3.22      13.27
H      11.36      16.62      13.00
H      11.93       8.74       1.13
H      10.07       9.70       4.75
H       9.74      10.75      15.33
H       8.15       8.77      18.65
H       7.06       9.99       1.03
H      12.97      10.05      18.86
H       7.39      10.06      15.43
H       6.98      10.95       3.39
H      13.13       8.42       3.33
H      13.06      11.18      16.62
H      13.88      14.18      19.06
H      16.28      13.78       2.94
H      13.93      17.24       2.36
H       2.84       2.38      19.15
H      19.34       2.77       2.45
H       2.50      19.12       2.71
H       2.34      13.81      17.17
H      18.93      13.88      14.21
H       2.81      16.28      13.79
H      13.72       2.94      16.34
H      17.13       2.23      13.98
H      13.79      19.27      13.64
H       9.06       0.34      16.39
H      12.68      18.51      17.98
H       3.85      17.54      18.66
H       7.16      16.06      16.57
H       9.23      15.11      17.74
H       7.27       1.33      17.83
H       4.01      15.18      17.95
H      11.55      15.19      18.84
H      12.09       1.51      17.32
H       5.10       1.34      19.12
H      16.65       9.02       0.46
H      17.63      12.69      18.26
H      18.86       3.78      17.68
H      16.66       7.03      16.22
H      17.85       9.05      15.14
H      18.11       7.25       1.43
H      18.00       3.80      15.41
H      18.82      11.46      15.12
H      16.31      11.22       1.72
H      19.36       5.07       1.45
H       0.38      16.74       9.13
H      18.07      17.70      12.75
H      17.74      18.75       3.78
H      16.15      16.77       7.10
H      15.06      17.99       9.03
H       1.42      18.05       7.31
H      15.39      18.06       3.88
H      14.98      18.95      11.39
H       1.58      16.42      11.33
H       1.51      19.18       5.07
N       7.75       8.08      15.53
N       4.80       8.52      11.74
N       7.71       4.76      12.07
N      11.86      12.21      15.32
N      15.38      11.67      12.14
N      12.34      15.32      11.76
N      11.91       7.76       4.82
N      15.50       7.65       8.00
N      11.66       4.73       8.47
N       8.27      11.70       4.76
N       4.44      12.24       7.55
N       8.03      15.46       7.80
N      15.75      16.08       3.98
N      12.80      16.52       0.19
N      15.71      12.76       0.52
N       0.31       0.66       3.77
N       3.83       0.12       0.59
N       0.79       3.77       0.21
N       0.36      15.76      12.82
N       3.95      15.65      16.00
N       0.11      12.73      16.47
N      16.27       0.15      12.76
N      12.44       0.69      15.55
N      16.03       3.91      15.80
O       1.10       7.83      10.39
O      19.03      12.16      10.47
O      10.49       0.98       7.88
O      10.72      19.02      12.24
O       7.82      10.61       0.97
O      12.24      10.69      19.05
O       9.10      15.83      18.39
O       7.48       0.61      18.47
O      18.49       8.98      15.88
O      18.72       7.47       0.69
O      15.82      18.61       8.97
O       0.69      18.69       7.50
