48

C       7.96      13.35       5.88
H       2.38       9.69      11.29
C       0.76      13.22       5.80
H       6.50       8.72      10.65
C       6.87      13.01       5.05
C       1.87      12.90       4.99
C       7.02      13.18       3.66
C       1.73      13.05       3.60
C       8.19      13.70       3.12
C       0.56      13.55       3.04
C       5.60      12.53       5.63
H       9.98      14.12       5.99
C       3.15      12.46       5.59
H      -1.27      13.95       5.88
C       4.37      12.88       5.04
H       7.86      13.25       6.96
C       5.58      11.77       6.81
O      11.51      14.77       4.14
H       0.86      13.14       6.88
C       3.17      11.67       6.76
H       6.21      12.88       3.00
O      -2.80      14.54       4.04
C       4.38      11.33       7.39
O      10.40      15.07       2.16
H       2.56      12.77       2.95
C       4.40      10.55       8.65
H       8.29      13.85       2.05
O      -1.68      14.97       2.10
C       3.25      10.46       9.47
C      10.48      14.67       3.38
O       5.62       8.05      12.86
H       0.47      13.69       1.96
C       5.56       9.89       9.09
O       3.34       8.20      12.97
H       4.37      13.53       4.17
C      -1.77      14.50       3.29
C       3.27       9.75      10.67
C       9.26      14.05       3.96
H       6.53      11.52       7.28
C       5.59       9.20      10.31
C      -0.53      13.88       3.86
H       2.23      11.31       7.15
C       4.44       9.13      11.11
C       9.15      13.85       5.34
H       2.34      10.98       9.18
C       4.47       8.40      12.41
C      -0.42      13.69       5.25
H       6.46       9.90       8.48
