48

C       4.50      36.23      23.54
C       4.37      45.38      19.66
C       4.46      44.12      29.53
C       4.44      36.79      24.82
C       4.15      44.00      19.52
H       4.42      36.13      25.69
C       3.99      44.87      28.45
H       3.97      43.60      18.53
C       4.40      38.17      24.99
H       3.61      45.87      28.64
C       4.16      43.18      20.64
H       4.35      38.56      26.00
C       3.98      44.34      27.17
H       3.95      42.12      20.50
C       4.43      39.04      23.88
H       3.55      44.92      26.35
C       4.41      43.68      21.93
H       4.49      39.08      21.71
C       4.48      43.04      26.92
H       4.83      45.51      23.02
C       4.47      38.46      22.60
C       4.62      45.07      22.05
H       5.41      41.32      27.84
H       4.55      36.64      21.43
C       4.98      42.31      28.01
H       4.76      46.98      21.05
C       4.51      37.08      22.43
C       4.60      45.91      20.94
H       5.34      42.25      30.14
H       4.38      40.45      26.23
C       4.96      42.83      29.30
C       4.43      40.52      24.07
H       4.46      40.98      21.97
C       4.44      42.79      23.12
H       4.50      44.38      24.57
C       4.46      42.47      25.55
C       4.43      41.09      25.35
C       4.44      41.39      22.97
C       4.47      43.31      24.42
O       4.57      47.52      18.67
C       4.39      46.27      18.46
O       4.51      34.05      24.44
O       4.24      45.70      17.33
O       4.13      45.93      31.00
O       4.56      34.30      22.17
C       4.52      34.75      23.37
O       4.72      43.91      31.88
C       4.44      44.69      30.91
