48

C       0.85      19.31      21.96
H       6.58      25.83      23.10
C       7.02      18.82      22.41
C       2.03      18.74      22.48
C       7.16      17.56      23.03
C       1.99      17.39      22.89
C       8.33      16.83      22.92
C       0.83      16.63      22.73
C       5.74      19.56      22.49
H      10.16      19.03      21.07
C       3.29      19.51      22.55
H      -1.22      19.00      21.42
C       4.53      18.85      22.46
H       8.04      20.31      21.22
C       5.70      20.96      22.56
O      11.66      17.14      21.47
H       0.86      20.34      21.61
C       3.29      20.91      22.67
H       6.33      17.16      23.61
O      -2.63      17.02      21.70
C       4.49      21.66      22.65
O      10.63      15.33      22.39
H       2.87      16.93      23.33
C       4.47      23.15      22.72
H       8.42      15.85      23.38
O      -1.44      15.11      22.11
C       3.28      23.88      22.56
C      10.66      16.55      22.01
O       5.60      28.06      22.87
H       0.81      15.58      23.02
C       5.66      23.88      22.93
O       3.32      28.06      22.86
H       4.55      17.77      22.31
C      -1.56      16.38      21.99
C       3.27      25.27      22.61
C       9.42      17.36      22.21
H       6.64      21.49      22.55
C       5.66      25.27      22.95
C      -0.33      17.20      22.20
H       2.34      21.42      22.80
C       4.46      25.99      22.80
C       9.32      18.63      21.63
H       2.34      23.36      22.37
C       4.46      27.48      22.85
C      -0.31      18.56      21.83
H       6.60      23.37      23.08
C       8.13      19.35      21.72
H       2.34      25.82      22.49
