40

H       0.45       6.75       1.76
H      -1.50      10.02      -0.26
H      -0.88      11.48       1.72
H       0.27      10.45       3.67
H       0.02       6.93      -0.97
H      -1.45       7.87      -1.30
H      -0.85       4.83      -1.41
H      -2.39       5.58      -1.93
H      -3.57       7.05      -0.29
H      -2.81       7.32       1.30
N       0.43       8.55       2.82
N      -1.65       6.16      -0.01
N      -6.00       1.99      -2.82
N      -3.92       4.38       0.01
H      -6.02       3.79      -1.76
H      -4.07       0.53       0.26
H      -4.69      -0.94      -1.72
H      -5.85       0.09      -3.66
H      -5.60       3.61       0.97
H      -4.13       2.68       1.30
H      -4.72       5.71       1.40
H      -3.19       4.97       1.93
H      -2.01       3.49       0.29
H      -2.77       3.22      -1.30
C       0.15       7.79       1.72
C      -0.55       8.27       0.61
C      -0.95       9.61       0.59
C      -0.61      10.43       1.69
C       0.05       9.86       2.78
C      -0.90       7.32      -0.51
C      -1.84       5.16      -1.06
C      -2.96       6.58       0.51
C      -5.72       2.75      -1.72
C      -5.02       2.27      -0.61
C      -4.62       0.93      -0.59
C      -4.97       0.12      -1.69
C      -5.62       0.68      -2.78
C      -4.68       3.22       0.51
C      -3.73       5.38       1.06
C      -2.61       3.97      -0.51
