40

C      -3.52       6.51      10.22
C      -2.77       6.10       9.12
C      -1.40       6.38       9.10
C      -0.85       7.08      10.19
C      -1.65       7.40      11.27
C      -3.45       5.33       8.01
C      -4.87       3.46       7.46
C      -3.09       3.17       9.02
N      -5.63      -1.76       5.69
H      -7.83      -0.71       8.76
H      -4.03      -0.92       6.75
N      -4.53       1.25       8.50
H      -8.83      -1.97       6.80
H      -4.38      -0.59       9.46
H      -5.91       0.25       9.80
H      -2.97       1.20       9.90
H      -4.38       2.17      10.43
H      -7.37      -2.53       4.86
N      -4.09       4.11       8.51
N      -2.99       7.12      11.32
H      -6.24       2.47       8.80
H      -6.10       1.70       7.20
H      -4.59       6.28      10.27
H      -0.78       6.07       8.26
H       0.21       7.34      10.22
H      -1.24       7.89      12.16
H      -4.24       5.95       7.56
H      -2.71       5.12       7.22
H      -5.65       4.16       7.12
H      -4.24       3.19       6.59
H      -2.37       2.89       8.22
H      -2.51       3.66       9.82
C      -5.09      -1.14       6.79
C      -5.85      -0.73       7.89
C      -7.22      -1.01       7.92
C      -7.77      -1.72       6.83
C      -6.96      -2.04       5.74
C      -5.17       0.03       9.00
C      -3.74       1.91       9.56
C      -5.53       2.19       8.00
