40

C       0.94      -0.11       1.06
C      -0.18       1.31      -0.50
H      -3.23      -1.47       1.74
H      -1.29      -4.75      -0.25
H      -1.91      -6.19       1.74
H      -3.05      -5.14       3.68
H      -2.80      -1.66      -0.98
H      -1.33      -2.60      -1.31
H      -1.93       0.44      -1.42
H      -0.38      -0.30      -1.93
N      -3.21      -3.26       2.82
N      -1.13      -0.89      -0.02
H       0.79      -1.78      -0.29
H       0.02      -2.05       1.29
N       3.21       3.26      -2.82
N       1.13       0.90       0.02
H       3.23       1.47      -1.74
H       1.29       4.76       0.25
H       1.91       6.19      -1.75
H       3.05       5.14      -3.68
H       2.80       1.67       0.99
H       1.33       2.60       1.31
H       1.93      -0.44       1.42
H       0.38       0.30       1.93
H      -0.79       1.78       0.29
H      -0.02       2.05      -1.29
C      -2.93      -2.51       1.71
C      -2.23      -3.00       0.60
C      -1.83      -4.34       0.59
C      -2.18      -5.14       1.70
C      -2.83      -4.57       2.79
C      -1.88      -2.05      -0.52
C      -0.94       0.11      -1.06
C       0.18      -1.31       0.50
C       2.93       2.51      -1.71
C       2.23       3.00      -0.60
C       1.83       4.34      -0.60
C       2.18       5.14      -1.70
C       2.83       4.57      -2.79
C       1.88       2.05       0.52
