168

C       7.50      13.09      46.11
C       6.68      11.95      46.39
C       7.12      12.57      43.69
C       7.73      13.32      44.72
C       7.52      12.64      15.88
C       8.98      11.10      17.86
C       8.86      10.64      16.51
C       8.07      11.36      15.59
C       7.05      13.54      14.85
C      14.15       1.18      15.13
C      13.97       2.22      14.19
C      15.02       0.50      31.49
C      14.32       0.08      33.85
C      13.63       0.65      31.19
C       6.91      13.04      38.09
C       6.98      13.01      39.50
C       7.74      13.08       9.00
C       7.76      11.89       8.25
C       7.77      11.92       6.84
C       7.66      13.03      10.41
C       7.54      13.50      21.72
C       7.46      13.44      20.31
C      11.95       5.03      15.53
C      10.60       5.33      15.85
C      10.17       6.67      15.95
C      12.42       3.70      15.45
C       7.57      13.02      17.25
C       8.25      12.26      18.24
C       7.37      13.35      13.47
C      15.34       0.07      24.60
C      14.31       0.66      23.84
C      14.33       0.63      22.43
C      15.31       0.17      26.01
C       6.10      11.14      45.39
C       6.28      11.48      44.02
C      12.95       0.02      33.47
C      12.61       0.34      32.12
C       7.84      13.13       6.12
C      14.98       0.80      12.49
C       0.20       0.39       0.23
C       0.15       0.06       1.61
C       0.57       0.93       2.65
C       1.14       2.18       2.32
C       1.26       2.54       0.95
C       0.79       1.66      46.88
C      -1.17       2.07      12.87
C      15.31       0.29      32.86
C       0.38       0.45      30.46
C       1.78       0.49      30.75
C       2.77       0.11      29.81
C      -5.43      13.29      28.49
C      -6.78      13.49      28.10
C       0.07       0.27      29.08
C       0.21       0.09      40.21
C       1.22       0.73      39.45
C       1.18       0.71      38.04
C       0.11       0.12      37.33
C       0.29       0.09      41.62
C       0.10       0.21      35.92
C       0.02       0.79       6.88
C      -0.04       0.76       8.29
C       7.90      13.09       4.71
C      -7.07      12.89      22.49
C      -7.08      12.97      23.90
C       2.90       5.64      46.57
C       3.24       6.35      45.40
C       3.94       7.57      45.48
C       4.33       8.13      46.72
C       3.99       7.41       0.97
C       3.28       6.20       0.89
C       2.20       4.41      46.48
C       5.04       9.35      46.80
C      11.09       7.74      15.88
C      -3.20       7.43      15.60
C      -2.79       6.11      15.35
C      -4.93       9.05      16.20
C       1.16      13.40      31.50
C       0.22      12.38      31.23
C      -1.13      12.69      30.99
C       6.20       0.46      31.16
C       7.14       1.48      31.48
C       8.51       1.19      31.57
C       2.49      13.07      31.81
C       4.82       0.72      31.08
H       7.61      12.70       1.91
H       6.46      11.71       0.42
H       9.95       9.46      18.61
H       7.99      10.97      14.65
H      13.78       1.35      16.07
H      14.75       0.26      28.77
H      13.33       0.90      30.25
H       6.22      12.55      40.02
H       7.77      11.02       6.34
H       7.72      10.98       8.72
H       7.67      12.11      10.87
H      14.54       0.41      19.84
H      11.86       2.94      15.85
H      15.02       0.36      17.55
H       7.87      12.52      13.17
H       7.78      12.20       4.23
H      13.56       1.07      21.93
H      13.54       1.15      24.30
H      14.51       0.62      26.46
H       5.78      10.94      42.09
H       4.37      13.21      35.34
H       6.13      11.51      37.29
H       9.19       6.84      16.20
H       9.34       4.10      15.16
H       0.53       0.52      44.42
H       5.08      10.00      43.24
H       1.98       3.89       3.10
H       1.55       2.79       4.24
H       0.84       2.00      45.92
H      -1.62       3.96      12.20
H      -0.93       3.00      11.06
H      -5.97      10.62      19.73
H       0.63       0.18      33.16
H      -3.56      12.73      27.84
H      -4.73      12.61      26.69
H       3.22      13.53      34.23
H       2.10       0.73      31.68
H       1.94       1.19      37.54
H       2.01       1.19      39.91
H       1.03       0.62      42.09
H       0.91       0.62      35.44
H      -0.05       1.65       8.80
H      -0.89       2.24       6.09
H      -6.31      12.52      24.41
H      -5.36      12.92      21.69
H       4.16       8.04      44.60
H       2.99       5.98      44.48
H       3.05       5.72       1.76
H       5.20       7.50       2.42
H       1.97       4.03      45.56
H       5.32       9.71       0.78
H      -1.80       5.94      15.16
H      -2.50       8.18      15.54
H      -4.21       9.73      16.48
H      -1.78      11.91      30.80
H       0.52      11.40      31.17
H       9.16       1.94      31.82
H       6.71       3.18      30.77
H       2.71      12.11      32.10
H       4.44       1.59      31.47
N       7.33      12.83      42.37
N      13.33       3.38      14.51
N       9.45       9.52      16.01
N       6.81      13.54      35.18
N       8.18      12.57      19.56
N       5.67      10.74      43.04
N       4.16      13.39      34.41
N      11.35       0.38      31.62
N       1.58       3.03       3.30
N       5.40      10.02      45.68
N       1.87       3.71       0.65
N       0.44       0.62       3.97
N       9.62      10.35      18.80
N      -1.28       3.09      11.96
N      15.20       0.57      11.16
N      -4.49      12.87      27.59
N      -7.07      13.42      26.77
N       4.09       0.09      30.14
O       5.84      12.43      37.51
O       9.68       4.34      16.05
O       0.05       2.02       6.30
O      -6.03      12.24      21.91
O       4.31       7.87       2.21
O       6.75       2.77      31.67
