37

C       6.17       0.36       7.29
C       6.77      -0.50       6.35
C       7.32      -1.72       6.75
C       7.27      -2.13       8.09
C       6.67      -1.28       9.03
C       6.14      -0.04       8.64
C       4.95       1.73       5.77
C       4.48       3.13       5.49
C       3.61       3.53       4.48
C       3.32       4.90       4.37
N       4.99       4.04       6.33
N       5.64       1.61       6.93
C       4.77       5.35       6.22
C       3.92       5.83       5.22
C       6.26       5.48      10.67
H       3.15       2.80       3.82
C       6.86       6.03      11.81
H       2.61       5.24       3.61
C       5.49       6.18       7.24
H       3.71       6.90       5.14
H       6.81      -0.20       5.31
H       7.78      -2.37       6.01
H       7.69      -3.08       8.39
H       6.61      -1.58      10.07
H       5.71       0.61       9.39
C       7.53       7.01       9.28
H       5.53       4.68      10.76
H       7.79       7.40       8.30
H       6.59       5.66      12.79
H       8.23       7.50      12.59
H       8.87       8.33      10.31
O       4.68       0.81       4.95
O       5.60       7.42       7.06
C       7.79       7.07      11.69
C       8.13       7.54      10.43
N       5.93       5.42       8.27
C       6.57       5.99       9.39
