37

N       7.40      17.75      17.64
N       8.06      15.34      17.04
N       7.10      13.97      18.98
O       8.37      18.56      15.67
C       6.86      19.00      18.00
C       6.26      19.86      17.05
C       5.71      21.08      17.45
C       5.76      21.48      18.79
C       6.35      20.64      19.73
C       6.88      19.40      19.34
H       9.90      16.56      14.52
H       6.23      19.57      16.01
C       9.44      15.84      15.19
H       5.33      22.44      19.09
C       9.72      14.47      15.07
H       6.40      20.93      20.77
C       9.11      13.54      15.93
H       9.31      12.47      15.84
H      10.41      14.12      14.31
C       8.10      17.64      16.48
C       8.57      16.25      16.21
H       5.25      21.73      16.71
H       7.50      14.69      21.47
H       7.32      18.74      20.09
H       6.43      13.68      23.50
C       7.55      13.21      17.96
C       6.46      13.39      20.09
C       6.77      13.88      21.38
C       5.51      12.36      19.97
H       5.25      11.98      18.99
C       4.91      11.81      21.10
H       4.18      11.02      20.98
C       6.18      13.32      22.50
C       5.25      12.28      22.38
C       8.27      14.02      16.93
H       4.81      11.83      23.27
O       7.44      11.97      17.79
