37

N       3.05      11.30       3.76
N       3.72      13.72       4.36
N       2.76      15.09       2.41
O       4.02      10.50       5.73
O       3.10      17.09       3.60
H       5.52      12.50       6.89
H       6.07      14.93       7.09
H       4.99      16.59       5.55
H       1.88       9.49       5.38
H       0.91       7.32       4.68
H       0.99       6.61       2.30
H       2.07       8.12       0.62
H       2.98      10.31       1.30
C       2.51      10.05       3.40
H       2.11      15.37      -2.10
C       1.37       7.97       3.94
H       0.48      17.22      -1.88
C       1.42       7.57       2.60
C       2.01       8.41       1.66
C       1.91       9.19       4.34
H      -0.16      18.04       0.40
H       3.17      14.37      -0.07
C       2.54       9.65       2.05
C       5.08      13.23       6.22
H       0.91      17.08       2.40
C       3.75      11.41       4.92
C       4.21      12.81       5.20
C       5.37      14.59       6.33
C       4.78      15.52       5.47
C       3.94      15.04       4.46
C       3.21      15.85       3.44
C       2.12      15.67       1.30
C       2.44      15.17       0.02
C       1.84      15.73      -1.11
C       0.92      16.78      -0.99
C       0.58      17.24       0.28
C       1.18      16.70       1.42
