27

H       8.57      10.85       6.42
H      10.06       6.98       0.30
N       9.16      10.72       5.54
H       9.03       8.39       2.06
N       9.88      11.80       5.15
H      12.92      10.01       3.00
H      13.92       8.63       1.21
H      12.29      12.74       3.92
H      10.85      13.33       3.08
H      11.81      12.00       2.39
H       7.83       8.24       4.26
H       8.29       8.30       5.97
H       9.36       7.53       4.77
O      13.92       6.99      -0.63
O      11.91       5.95      -0.91
C      12.06       7.71       0.65
C      10.68       7.64       0.90
C      10.58      11.44       4.05
C      10.10       8.43       1.90
C      10.30      10.09       3.75
C      10.90       9.29       2.68
C       9.37       9.67       4.73
C      12.28       9.37       2.41
C      12.85       8.59       1.40
C      12.69       6.84      -0.37
C      11.43      12.42       3.32
C       8.68       8.37       4.95
