27

N      -2.46      -1.31      16.09
N      -1.60      -0.31      15.76
O      -7.60       0.05       9.56
O      -7.16       2.28       9.78
H      -2.19      -1.89      16.95
H      -5.89      -1.38      10.62
H      -4.32      -1.95      12.46
H      -4.32       2.16      13.71
H      -5.83       2.73      11.82
H      -2.09       2.34      13.89
H      -1.04       1.18      13.06
H      -0.58       1.81      14.66
H      -4.50      -3.22      14.88
H      -5.59      -1.84      15.13
H      -4.75      -2.57      16.52
C      -5.98       0.71      11.12
C      -5.55      -0.61      11.30
C      -2.13       0.34      14.70
C      -4.68      -0.93      12.33
C      -3.35      -0.29      14.34
C      -4.23       0.06      13.23
C      -3.53      -1.33      15.27
C      -4.65       1.39      13.03
C      -5.50       1.71      11.98
C      -6.98       1.07      10.07
C      -1.42       1.48      14.04
C      -4.65      -2.29      15.46
