27

N       0.62       3.56       6.65
N       1.64       4.22       7.26
C      -2.89       5.43      11.71
C      -2.76       4.10      11.26
C       1.14       4.79       8.38
C      -1.91       3.80      10.20
C      -0.24       4.46       8.48
C      -1.15       4.81       9.57
C      -0.52       3.67       7.35
C      -1.28       6.13      10.04
C      -2.14       6.44      11.09
O      -4.25       4.72      13.50
C      -3.84       5.74      12.82
O      -4.18       6.94      13.01
C       1.98       5.59       9.31
C      -1.80       3.07       6.86
H       0.87       2.96       5.79
H      -3.33       3.32      11.74
H      -1.80       2.77       9.87
H      -0.70       6.92       9.56
H      -2.24       7.46      11.44
H       1.91       5.20      10.33
H       1.67       6.64       9.33
H       3.04       5.56       9.00
H      -1.67       2.01       6.59
H      -2.15       3.61       5.97
H      -2.57       3.13       7.63
