27

N       4.09       7.11       5.54
N       3.38       6.03       5.15
C       1.19      10.12       0.65
C       2.57      10.19       0.90
C       2.69       6.39       4.04
C       3.15       9.41       1.89
C       2.96       7.74       3.74
C       2.36       8.54       2.67
C       3.89       8.16       4.72
C       0.98       8.46       2.40
C       0.40       9.23       1.40
O      -0.68      10.82      -0.64
C       0.55      10.99      -0.38
O       1.32      11.89      -0.90
C       1.83       5.40       3.32
C       4.58       9.46       4.94
H       4.68       6.98       6.42
H       3.17      10.87       0.30
H       4.22       9.46       2.05
H       0.34       7.81       2.99
H      -0.67       9.18       1.21
H       0.97       5.10       3.92
H       2.40       4.49       3.08
H       1.45       5.83       2.38
H       5.43       9.60       4.26
H       4.97       9.53       5.97
H       3.90      10.31       4.77
