50

H       5.47       2.92       7.97
H       3.80      -0.03       6.25
H       5.21       4.11       6.10
H       4.23       1.98       2.50
H       5.63       1.21       9.38
H       5.80       0.21       7.93
H       2.45       1.67       8.87
H       5.05      -1.77       8.84
H      -1.44      -2.36      10.48
H       1.85      -1.53      12.19
H      -2.51      -1.79      12.37
H      -0.18      -1.43      15.96
H       0.18      -2.96       9.07
H       1.10      -3.39      10.52
H       0.56       0.24       9.58
H       3.20      -3.18       9.60
C       3.62      -0.39       3.56
C       3.90       0.89       4.32
C       4.04       0.88       5.70
C       4.55       2.04       6.35
C       4.80       3.23       5.60
C       4.63       3.23       4.23
C       4.22       2.05       3.58
C       4.99       4.46       3.43
C       5.11       0.87       8.47
C       3.88       0.06       8.83
C       2.61       0.61       9.03
C       4.07      -1.32       9.02
C       2.25      -1.48      14.90
C       0.95      -1.40      14.13
C       0.91      -1.53      12.75
C      -0.34      -1.71      12.10
C      -1.56      -1.64      12.86
C      -1.51      -1.48      14.23
C      -0.26      -1.39      14.88
C      -2.78      -1.51      15.04
C       0.64      -2.55       9.98
C       1.74      -1.58       9.62
C       1.54      -0.21       9.42
C       3.02      -2.12       9.43
N       4.90       2.06       7.66
N      -0.46      -2.05      10.80
O       3.10      -1.35       4.23
O       3.98      -0.42       2.36
O       4.65       4.50       2.21
O       5.64       5.37       4.04
O       3.32      -1.20      14.25
O       2.17      -1.89      16.08
O      -2.72      -1.16      16.26
O      -3.83      -1.91      14.44
