50

H       9.71       8.65       4.33
H      11.37      11.60       6.05
H       9.97       7.46       6.20
H      10.94       9.59       9.80
H       9.55      10.37       2.92
H       9.37      11.36       4.37
H      12.73       9.90       3.43
H      10.13      13.34       3.46
H      16.61      13.93       1.82
H      13.33      13.10       0.11
H      17.69      13.36      -0.06
H      15.35      13.00      -3.66
H      14.99      14.53       3.23
H      14.08      14.96       1.78
H      14.61      11.33       2.72
H      11.98      14.75       2.70
C      11.55      11.96       8.74
C      11.27      10.68       7.98
C      11.13      10.69       6.60
C      10.62       9.53       5.95
C      10.38       8.34       6.70
C      10.54       8.33       8.07
C      10.96       9.52       8.72
C      10.18       7.11       8.88
C      10.07      10.70       3.83
C      11.29      11.51       3.47
C      12.56      10.96       3.27
C      11.10      12.89       3.28
C      12.93      13.05      -2.59
C      14.23      12.97      -1.83
C      14.26      13.10      -0.45
C      15.52      13.28       0.20
C      16.73      13.20      -0.56
C      16.68      13.04      -1.93
C      15.43      12.96      -2.57
C      17.95      13.07      -2.74
C      14.54      14.12       2.32
C      13.43      13.15       2.68
C      13.63      11.78       2.88
C      12.16      13.69       2.87
N      10.27       9.51       4.64
N      15.63      13.62       1.51
O      12.08      12.92       8.07
O      11.19      11.99       9.94
O      10.53       7.07      10.10
O       9.53       6.20       8.27
O      11.85      12.77      -1.95
O      13.00      13.45      -3.78
O      17.90      12.73      -3.96
O      19.00      13.47      -2.14
