24

C       5.97       2.61       9.38
C       6.13       3.74       8.59
C       7.34       4.45       8.64
C       8.34       3.97       9.50
C       8.11       2.81      10.23
C       4.65       1.87       9.38
C       8.17       8.00       7.62
C       8.17       6.80       8.35
C       7.48       5.69       7.85
C       6.87       5.80       6.58
C       6.94       7.01       5.91
C       8.81       9.26       8.21
H       5.30       4.06       7.97
N       6.94       2.14      10.19
H       8.87       2.40      10.89
H       8.65       6.81       9.33
H       6.32       4.98       6.12
H       9.30       4.47       9.58
N       7.56       8.09       6.42
H       6.46       7.14       4.94
O       4.46       0.95      10.23
O       3.79       2.25       8.51
O       8.57      10.37       7.59
O       9.51       9.11       9.23
