75

Eu      13.92      18.33      12.15
Eu       5.60      10.32      11.61
C       4.76      22.23       9.82
Eu       4.87      19.41      11.88
Eu       9.60      14.49      11.88
N       8.97      19.02      13.92
N      12.90      19.55      14.17
Co       9.47      19.02      11.98
Co       5.08      14.79      11.79
Co      15.09      23.91      11.88
N       5.10      15.29       9.84
N      19.53      25.94       9.59
N       9.47      19.07       9.97
N       5.02      14.79      13.79
O      11.36      15.37      10.69
O      13.20      16.57      10.71
O       9.41      16.91      12.46
O       8.47      15.56      13.93
O       9.63      21.05      12.51
O      14.18      20.75      12.28
O      13.89      22.78      13.21
O      12.87      16.97      13.81
O       8.65      12.76      13.08
O       7.38      10.98      13.05
O       7.19      14.77      11.30
O       8.58      15.66       9.83
C      12.28      15.98      10.13
C       8.67      17.86      14.52
O       3.05      14.70      11.26
O      18.29      24.70      11.48
O      16.26      25.07      10.56
C       8.85      20.17      14.55
C       8.85      16.69      13.60
C       9.23      21.36      13.69
C      13.00      20.89      14.33
O       7.00      11.31       9.95
O      11.52      18.96      11.51
O      12.96      19.35       9.90
C      12.27      18.85      15.14
C      13.74      21.56      13.19
O       6.00      18.94       9.70
C      12.26      17.36      14.88
O       7.34      19.03      11.45
O       5.75      23.19      13.17
O       5.91      21.02      13.12
C       8.01      11.87      13.63
O      17.58      20.08      13.32
C       6.27      15.55       9.24
O      15.87      18.67      13.58
O       5.07      12.74      12.25
O       4.61      11.31      13.87
C       3.95      15.46       9.21
C       7.43      15.32      10.17
O       5.29      18.25      14.06
C       2.75      15.11      10.07
C      18.19      25.88       9.44
O       5.15      16.91      12.32
O      15.62      18.66      10.60
O      17.78      18.42      10.64
C      20.25      26.54       8.63
C      17.49      25.17      10.57
C       6.64      11.93       8.88
C      10.64      19.21       9.34
O       4.26      21.28      10.45
O       5.73      22.94      10.18
C       8.35      19.03       9.29
C      11.84      19.20      10.31
C       7.13      18.99      10.17
C       5.70      22.09      13.70
C      16.61      19.61      13.94
C       4.85      13.63      14.43
C       5.11      15.91      14.47
C       4.81      12.43      13.45
C       5.20      17.13      13.59
C      16.72      18.68      10.07
