31

O       8.71       6.36       3.02
O       8.33       1.73       3.02
O       5.65       6.37       6.26
In       5.40       3.13       4.64
In       7.18       6.23       4.64
In       8.97       3.13       4.64
O       6.05       1.74       6.26
O       9.85       4.39       6.26
O       4.52       4.38       6.26
O       8.70       6.36       6.26
O       8.33       1.74       6.26
O       5.65       6.37       3.02
O       6.05       1.73       3.02
O       9.85       4.39       3.02
O       7.19       4.16       4.64
C       2.77       1.60       5.70
C       7.17       9.28       5.70
C      11.62       1.60       5.70
C       7.17       9.28       3.57
C       2.77       1.60       3.56
C      11.61       1.60       3.57
C       4.83       5.52       2.53
C       9.53       5.52       2.53
C       7.19       1.45       2.53
C       4.83       5.52       6.75
C       7.19       1.45       6.75
C       9.52       5.52       6.75
N       3.49       2.02       4.63
N       7.17       8.44       4.63
N      10.89       2.02       4.63
O       4.51       4.39       3.02
