31

In      16.15       9.36      13.88
In      14.37       6.26      13.88
In      12.57       9.36      13.88
O      15.90       6.12      15.50
O      15.50      10.75      15.50
O      11.70       8.10      15.50
O      17.04       8.10      15.50
O      12.84       6.12      15.50
O      13.22      10.75      15.50
O      15.90       6.12      12.26
O      15.50      10.75      12.26
O      11.70       8.10      12.26
O      14.36       8.32      13.88
C      18.78      10.88      14.96
C      14.38       3.21      14.96
C       9.94      10.88      14.96
C      14.38       3.21      12.83
C      18.78      10.88      12.82
C       9.93      10.88      12.83
C      16.72       6.97      11.77
C      12.03       6.97      11.77
C      14.36      11.04      11.77
C      16.72       6.97      16.00
C      14.36      11.04      16.00
C      12.02       6.97      16.00
N      18.06      10.46      13.89
N      14.38       4.05      13.89
N      10.66      10.46      13.89
O      17.03       8.10      12.26
O      12.85       6.12      12.26
O      13.22      10.75      12.26
