25

C       3.80       9.40       1.01
C       3.64       9.84      -0.31
C       2.36       9.97      -0.87
C       1.22       9.69      -0.10
C       1.40       9.20       1.20
C       4.85      10.10      -1.14
C      -0.14       9.89      -0.63
C      -1.28       9.48       0.09
C      -2.55       9.68      -0.43
C      -1.68      10.68      -2.33
C      -0.38      10.52      -1.87
N      -2.76      10.26      -1.64
O       1.66       8.33       3.73
O       3.92       8.12       3.60
H       4.79       9.34       1.45
H       2.30      10.30      -1.90
O       6.00      10.05      -0.57
O       4.75      10.30      -2.40
H       0.56       8.94       1.84
H      -1.20       9.00       1.06
H       0.44      10.90      -2.48
H      -3.45       9.38       0.11
H      -1.89      11.15      -3.29
C       2.81       8.44       3.15
C       2.68       9.03       1.76
