13

C      12.44       1.63      10.28
C      14.01       3.58      10.93
C      14.01       4.99      10.92
H      14.72       3.06      11.24
H      14.72       5.51      11.21
C      12.84       3.04      10.45
C      12.83       5.49      10.42
C      12.49       6.92      10.17
O      13.26       0.73      10.60
O      11.27       1.44       9.86
O      13.41       7.75      10.38
O      11.32       7.17       9.78
S      11.72       4.26       9.98
