13

O      15.93       2.97      17.44
O      16.48       0.23      10.96
H      14.74       1.05      12.96
H      14.52       1.99      15.21
O      18.10       2.70      17.00
C      16.56       2.05      15.37
S      17.86       1.64      14.33
C      17.30       0.65      11.78
O      18.55       0.67      11.65
C      16.77       1.14      13.10
C      15.46       1.28      13.49
C      15.34       1.82      14.79
C      16.88       2.62      16.71
