13

C       2.23       2.70       1.27
C       1.95       1.24       1.19
O       3.68      -2.75       0.22
C       2.44      -2.54       0.30
O       1.26       3.45       1.52
H       0.03       1.05       1.83
O       3.43       3.08       1.09
C       2.02      -1.18       0.72
O       1.55      -3.39       0.06
C       0.77       0.61       1.49
C       0.81      -0.78       1.22
H       0.09      -1.35       1.35
S       3.13       0.14       0.60
