12

H       5.44       2.65       1.74
H       4.56       2.77       0.21
H       7.19       4.28       0.92
H       7.07       2.89      -0.13
O       4.98       5.51       1.95
O       3.13       4.33       1.59
O       5.14       5.11      -1.23
O       7.35       5.00      -1.64
C       4.38       4.45       1.49
C       5.21       3.33       0.90
C       6.50       3.77       0.22
C       6.31       4.69      -0.96
