26

O       8.75       0.90       9.88
O       8.81       0.67      12.14
O      20.05       0.19       9.32
O      20.08       0.42      11.58
H      11.08       0.17      13.01
H      13.54      -0.10      12.88
H      13.39       0.86       8.67
H      10.93       1.03       8.82
C       9.36       0.75      10.99
C      10.85       0.64      10.93
C      11.60       0.32      12.07
C      12.99       0.18      11.98
H      17.95       0.42      12.66
H      15.48       0.48      12.81
C      13.67       0.37      10.77
C      12.90       0.69       9.63
C      11.52       0.80       9.70
H      17.70       0.04       8.40
H      15.24       0.04       8.53
C      19.48       0.29      10.47
C      17.99       0.24      10.52
C      17.34       0.34      11.77
C      15.95       0.36      11.84
C      15.15       0.28      10.68
C      15.82       0.14       9.44
C      17.21       0.13       9.36
