24

C       8.47       2.05       0.24
C       8.94       2.76       1.36
C       9.77       3.87       1.14
C      10.12       4.22      -0.16
N       7.18       0.78       7.26
N       8.60       2.41       2.67
N       9.68       3.53      -1.23
O       7.82       0.26       2.35
H       6.75       2.80       7.34
H       7.25       3.20       4.91
H       8.17      -1.02       4.58
H       7.60      -1.24       7.02
H       8.53       1.94      -1.91
H       7.82       1.19       0.35
H      10.16       4.45       1.98
H      10.77       5.07      -0.36
H       8.92       3.04       3.40
C       7.09       2.00       6.69
C       7.39       2.21       5.34
C       7.80       1.11       4.57
C       7.88      -0.15       5.17
C       7.57      -0.28       6.52
C       8.06       1.20       3.10
C       8.86       2.47      -1.02
