20

H       5.29       8.01       7.69
H       2.39       8.12       8.42
H       2.79       9.75      10.04
H       5.69       9.64       9.31
C       3.77       8.92       6.53
C       4.37       8.62       7.86
C       3.42       7.99       8.82
C       3.55       6.54       9.21
C       4.32       8.84      11.20
C       3.72       9.14       9.86
C       4.67       9.76       8.90
C       4.54      11.21       8.51
O       2.68       8.34       6.16
O       4.30       9.73       5.71
O       2.61       6.12       9.98
O       4.52       5.88       8.73
O       5.40       9.42      11.57
O       3.78       8.02      12.02
O       5.47      11.63       7.75
O       3.56      11.88       9.00
