20

H       3.28       0.85       1.21
H       0.38       0.78       0.42
H       0.82      -0.85      -1.21
H       3.71      -0.78      -0.42
C       1.74      -0.08       2.33
C       2.36       0.25       1.01
C       1.42       0.88       0.04
C       1.59       2.32      -0.36
C       2.35       0.08      -2.33
C       1.74      -0.25      -1.01
C       2.67      -0.88      -0.04
C       2.50      -2.32       0.36
O       0.65       0.49       2.69
O       2.26      -0.91       3.15
O       0.67       2.76      -1.14
O       2.58       2.96       0.13
O       3.45      -0.49      -2.69
O       1.83       0.91      -3.15
O       3.42      -2.76       1.14
O       1.51      -2.96      -0.13
