496

H       1.28       2.00       4.54
H      10.38       1.81       4.66
H       6.94       1.70       7.96
H       4.61       2.01       7.92
H       7.05       2.05       1.27
H       4.69       1.86       1.24
H      26.00       1.66      23.52
H      16.89       1.82      23.38
H      20.23       1.95      26.77
H      22.57       1.65      26.81
H      20.33       1.51      20.09
H      22.68       1.71      20.12
H      10.24      17.40      23.52
H       1.13      17.47      23.66
H       4.45      17.46      20.26
H       6.80      17.69      20.23
H       4.56      17.50      26.94
H       6.90      17.21      26.90
H      16.77      17.36       4.73
H      25.88      17.37       4.87
H      22.55      17.48       1.47
H      20.21      17.21       1.43
H      22.44      17.20       8.16
H      20.11      17.47       8.12
H      29.21       5.05      14.16
H      29.15      14.15      14.26
H      29.04      10.83      10.88
H      29.31       8.47      10.85
H      29.31      10.75      17.56
H      29.07       8.39      17.54
H      29.31      29.79      32.89
H      29.07      20.69      32.99
H      29.33      24.02      29.62
H      29.13      26.39      29.59
H      28.99      24.12      36.30
H      29.32      26.46      36.28
H      13.47      14.15      32.98
H      13.72       5.06      32.98
H      13.51       8.42      36.32
H      13.72      10.79      36.31
H      13.71       8.44      29.63
H      13.37      10.79      29.64
H      13.48      20.66      14.11
H      13.54      29.75      14.07
H      13.64      26.40      17.43
H      13.35      24.04      17.44
H      13.39      26.38      10.74
H      13.65      24.01      10.75
H       3.21       0.14      35.09
H      27.53       0.32       2.33
H       0.66       2.46       2.29
H      28.77      30.39      35.23
H      24.12       3.52      16.42
H      31.01       3.38      21.28
H      26.73       1.26      21.31
H      29.75       4.47      16.52
H       8.45      15.79      31.59
H      14.27      15.62      25.49
H       9.26      18.05      27.22
H      13.87      14.72      30.54
H      18.47      18.97      12.83
H      12.77      19.16       6.61
H      17.74      16.70       8.45
H      13.10      20.06      11.70
H      14.22      19.09      21.57
H       8.39      19.17      15.47
H      13.83      20.07      16.52
H       9.12      16.84      19.80
H      29.87      15.76       6.79
H      24.08      15.70      12.93
H      29.51      14.80      11.86
H      24.78      18.01       8.56
H      13.02       3.86      25.01
H      18.64       3.93      31.32
H      13.30       6.05      29.16
H      17.84       1.29      27.15
H       3.02      15.66      16.55
H      27.32      15.64      21.44
H       0.39      17.84      21.46
H      28.54      14.62      16.69
H      24.15      19.54      34.60
H      29.71      19.52       3.27
H      24.93      16.90       1.06
H      29.41      21.76      36.82
H       8.51       0.16      12.72
H      14.35       0.16       6.63
H       9.28       2.48       8.37
H      13.92      30.35      11.68
H      14.46       3.48       2.77
H       8.69       3.43      34.28
H      14.09       4.45      35.37
H       9.47       1.10       1.01
H      29.98       0.12      25.41
H      24.24       0.13      31.60
H      29.64      30.39      30.50
H      24.93       2.42      27.20
H      18.59       0.11      15.31
H      12.91       0.17      21.55
H      17.97       2.42      19.69
H      13.20      30.39      16.46
H       2.93      19.05      31.71
H      28.34      19.06      25.55
H       2.18      16.71      27.32
H      28.71      20.05      30.61
H      28.57       3.95       6.18
H       2.98       3.92      12.51
H      28.80       6.04      10.38
H       2.19       1.35       8.28
H      18.61      15.68      34.33
H      12.79      15.71       2.77
H      17.89      17.98       1.01
H      13.17      14.77      35.38
C       5.11       1.90       4.59
C       4.38       2.00       5.81
C       2.97       2.14       5.77
C       2.30       1.99       4.54
C       3.00       1.79       3.33
C       4.42       1.84       3.34
C       5.10       1.96       7.03
C       5.16       1.86       2.14
C       6.54       1.87       4.61
C       7.23       1.75       5.85
C       8.65       1.64       5.85
C       9.36       1.82       4.65
C       8.69       2.03       3.43
C       7.27       1.96       3.39
C       6.48       1.76       7.05
C       6.56       1.99       2.17
C      22.16       1.72      23.46
C      22.86       1.64      24.70
C      24.27       1.51      24.70
C      24.97       1.65      23.49
C      24.31       1.83      22.26
C      22.90       1.77      22.23
C      22.11       1.69      25.90
C      22.18       1.73      21.01
C      20.73       1.74      23.43
C      20.00       1.87      24.65
C      18.59       1.99      24.61
C      17.92       1.79      23.39
C      18.62       1.57      22.19
C      20.04       1.63      22.19
C      20.72       1.88      25.87
C      20.79       1.58      21.00
C       6.40      17.43      23.57
C       7.09      17.56      22.33
C       8.51      17.64      22.33
C       9.21      17.41      23.53
C       8.54      17.20      24.75
C       7.13      17.30      24.79
C       6.34      17.61      21.13
C       6.41      17.28      26.01
C       4.97      17.44      23.59
C       4.23      17.39      22.37
C       2.82      17.31      22.40
C       2.16      17.48      23.63
C       2.86      17.63      24.84
C       4.28      17.51      24.84
C       4.94      17.44      21.15
C       5.02      17.47      26.03
C      20.61      17.34       4.78
C      19.92      17.25       3.54
C      18.50      17.16       3.54
C      17.80      17.35       4.74
C      18.46      17.54       5.96
C      19.88      17.44       6.01
C      20.67      17.25       2.34
C      20.59      17.42       7.22
C      22.04      17.33       4.81
C      22.77      17.44       3.59
C      24.19      17.54       3.63
C      24.86      17.35       4.85
C      24.15      17.15       6.05
C      22.74      17.24       6.05
C      22.06      17.43       2.37
C      21.99      17.24       7.25
C      29.16       8.89      14.20
C      29.27       8.19      12.96
C      29.38       6.78      12.97
C      29.20       6.08      14.17
C      28.99       6.75      15.40
C      29.07       8.17      15.42
C      29.26       8.94      11.76
C      29.09       8.88      16.64
C      29.17      10.32      14.21
C      29.06      11.05      12.99
C      28.96      12.46      13.02
C      29.17      13.13      14.25
C      29.37      12.43      15.45
C      29.28      11.02      15.45
C      29.07      10.33      11.77
C      29.27      10.27      16.66
C      29.24      25.95      32.94
C      29.16      26.65      31.70
C      29.09      28.07      31.69
C      29.31      28.76      32.90
C      29.48      28.09      34.13
C      29.36      26.68      34.16
C      29.16      25.91      30.50
C      29.29      25.97      35.38
C      29.20      24.53      32.96
C      29.29      23.80      31.74
C      29.33      22.38      31.76
C      29.08      21.72      32.98
C      28.91      22.42      34.18
C      29.06      23.83      34.20
C      29.30      24.51      30.52
C      29.07      24.58      35.40
C      13.54      10.32      32.98
C      13.66      11.03      34.20
C      13.73      12.45      34.19
C      13.49      13.13      32.98
C      13.27      12.44      31.77
C      13.40      11.03      31.75
C      13.68      10.30      35.41
C      13.42      10.30      30.54
C      13.58       8.89      32.97
C      13.51       8.18      34.21
C      13.46       6.76      34.19
C      13.70       6.08      32.98
C      13.86       6.77      31.77
C      13.70       8.18      31.74
C      13.52       8.90      35.42
C      13.66       8.92      30.53
C      13.50      24.49      14.09
C      13.38      23.79      15.33
C      13.27      22.38      15.32
C      13.48      21.68      14.11
C      13.71      22.36      12.89
C      13.62      23.78      12.87
C      13.40      24.52      16.53
C      13.61      24.50      11.65
C      13.51      25.92      14.09
C      13.63      26.64      15.31
C      13.74      28.05      15.29
C      13.53      28.73      14.08
C      13.32      28.04      12.86
C      13.41      26.63      12.85
C      13.60      25.91      16.53
C      13.42      25.89      11.65
C       0.52       1.00       0.85
C       1.13       0.53      37.34
C       0.42      30.94      36.42
C      30.26      30.56      36.62
C      29.64      31.02       0.13
C      30.35       0.62       1.05
C       2.40       0.15      35.71
C      28.36       0.28       1.73
C       1.17       1.76       1.80
C      29.53      29.91      35.65
C      26.84       2.68      19.83
C      26.21       3.13      18.65
C      26.91       3.90      17.72
C      28.26       4.29      17.91
C      28.89       3.84      19.09
C      28.19       3.06      20.02
C      24.93       3.51      17.03
C      30.18       3.42      20.68
C      26.19       1.92      20.80
C      28.98       4.94      16.93
C      10.47      16.44      27.68
C      10.09      16.06      28.98
C      10.94      15.29      29.79
C      12.21      14.86      29.35
C      12.60      15.25      28.05
C      11.74      16.01      27.24
C       9.14      15.76      30.83
C      13.57      15.60      26.22
C       9.63      17.19      26.88
C      13.08      14.22      30.21
C      16.52      18.31       8.88
C      16.88      18.69      10.19
C      16.02      19.46      10.98
C      14.76      19.90      10.51
C      14.39      19.51       9.21
C      15.26      18.74       8.42
C      17.80      19.00      12.06
C      13.45      19.16       7.36
C      17.38      17.55       8.10
C      13.88      20.56      11.35
C      12.18      19.96      17.72
C      12.55      19.53      19.01
C      11.68      18.79      19.81
C      10.39      18.41      19.37
C      10.02      18.82      18.07
C      10.89      19.57      17.27
C      13.52      19.13      20.83
C       9.08      19.17      16.22
C      13.06      20.59      16.87
C       9.53      17.67      20.15
C      27.86      14.92      10.67
C      28.23      15.33       9.37
C      27.34      16.07       8.57
C      26.05      16.45       9.02
C      25.69      16.05      10.32
C      26.57      15.31      11.12
C      29.18      15.73       7.54
C      24.77      15.70      12.17
C      28.74      14.28      11.51
C      25.18      17.17       8.23
C      14.95       4.81      28.91
C      14.60       4.31      27.64
C      15.42       3.42      26.94
C      16.65       2.95      27.47
C      17.00       3.43      28.75
C      16.19       4.33      29.44
C      13.68       3.87      25.79
C      17.95       3.89      30.56
C      14.13       5.71      29.59
C      17.49       2.13      26.75
C       0.30      16.43      19.98
C       0.92      16.00      18.79
C       0.23      15.23      17.85
C      30.07      14.82      18.04
C      29.44      15.25      19.23
C      30.13      16.02      20.17
C       2.20      15.64      17.16
C      28.15      15.63      20.84
C       0.93      17.19      20.94
C      29.35      14.18      17.06
C      26.12      18.57       0.78
C      25.76      19.05      37.18
C      26.57      19.98      36.50
C      27.79      20.47      37.04
C      28.14      19.97       0.64
C      27.33      19.05       1.32
C      24.82      19.52      35.36
C      29.05      19.52       2.49
C      25.28      17.72       1.48
C      28.61      21.38      36.38
C      10.52       0.89       8.82
C      10.14       0.49      10.12
C      11.00      30.90      10.91
C      12.28      30.49      10.47
C      12.67      30.91       9.18
C      11.81       0.49       8.38
C       9.19       0.15      11.96
C      13.64       0.12       7.36
C       9.67       1.63       8.03
C      13.15      29.84      11.32
C      12.44       4.29      36.57
C      12.82       3.88       0.19
C      11.95       3.12       0.98
C      10.67       2.71       0.53
C      10.31       3.10      36.90
C      11.17       3.87      36.11
C      13.77       3.50       2.03
C       9.38       3.44      35.05
C      13.31       4.95      35.73
C       9.81       1.98       1.32
C      27.99      30.49      29.30
C      28.35      30.90      28.00
C      27.46       0.45      27.21
C      26.18       0.84      27.66
C      25.83       0.45      28.97
C      26.71      30.89      29.76
C      29.28       0.09      26.16
C      24.91       0.12      30.83
C      28.88      29.86      30.14
C      25.30       1.56      26.87
C      16.69       0.85      19.26
C      17.03       0.45      17.95
C      16.14      30.89      17.17
C      14.86      30.49      17.65
C      14.51      30.91      18.95
C      15.41       0.47      19.73
C      17.92       0.11      16.08
C      13.60       0.13      20.79
C      17.58       1.57      20.03
C      13.96      29.86      16.82
C       0.95      18.30      27.79
C       1.32      18.70      29.10
C       0.45      19.47      29.88
C      30.36      19.89      29.42
C      29.98      19.47      28.13
C      30.85      18.71      27.34
C       2.25      19.05      30.95
C      29.04      19.08      26.29
C       1.82      17.58      27.00
C      29.49      20.56      30.25
C      30.48       4.84      10.11
C      30.13       4.36       8.82
C      30.96       3.49       8.11
C       1.01       3.02       8.63
C       1.36       3.47       9.92
C       0.54       4.35      10.62
C      29.23       3.95       6.96
C       2.30       3.90      11.75
C      29.64       5.71      10.80
C       1.86       2.21       7.90
C      16.62      16.42       0.57
C      16.99      16.02      36.93
C      16.11      15.27      36.13
C      14.83      14.88      36.58
C      14.45      15.29       0.20
C      15.33      16.03       1.01
C      17.92      15.68      35.08
C      13.50      15.68       2.03
C      17.48      17.15       1.36
C      13.95      14.25      35.73
N       2.32       1.38       2.25
N       2.21       2.61       6.74
N       9.46       2.47       2.45
N       9.39       1.20       6.86
N      25.02       2.24      21.20
N      25.02       1.10      25.71
N      17.86       1.13      21.20
N      17.83       2.49      25.57
N       9.31      16.74      25.73
N       9.26      18.09      21.34
N       2.12      18.04      25.85
N       2.12      16.89      21.34
N      17.70      17.99       6.94
N      17.75      16.72       2.54
N      24.91      16.72       7.06
N      24.95      18.05       2.67
N      28.56       6.05      16.45
N      29.91       6.05      12.00
N      29.81      13.10      16.52
N      28.43      13.14      12.01
N      29.93      28.78      35.18
N      28.56      28.73      30.67
N      28.39      21.68      35.15
N      29.84      21.68      30.75
N      12.73      13.11      30.75
N      14.27      13.12      35.20
N      14.38       6.03      30.80
N      12.96       6.07      35.22
N      14.23      21.68      11.87
N      12.73      21.71      16.34
N      12.80      28.72      11.84
N      14.28      28.72      16.31
N       1.24      30.72      35.39
N      29.51       0.88       2.06
N      26.08       4.12      16.70
N      29.03       2.81      21.02
N      10.32      15.13      30.96
N      12.38      16.22      26.09
N      16.62      19.64      12.16
N      14.64      18.54       7.26
N      12.31      18.55      20.95
N      10.27      19.77      16.11
N      27.97      16.31       7.42
N      25.97      15.11      12.28
N      14.82       3.16      25.78
N      16.82       4.61      30.58
N       1.06      15.02      16.83
N      29.29      16.24      21.18
N      25.94      20.25      35.36
N      27.93      18.79       2.48
N      10.38      30.71      12.08
N      12.45       0.73       7.24
N      12.57       2.89       2.14
N      10.56       4.06      34.94
N      28.08       0.68      26.05
N      26.11      30.70      30.94
N      16.72      30.69      15.99
N      14.80       0.71      20.89
N       1.06      19.67      31.05
N      30.23      18.48      26.19
N      30.37       3.25       6.94
N       1.16       4.61      11.78
N      16.73      15.08      34.97
N      14.70      16.26       2.15
O       2.40       0.79      36.91
O      28.36      30.80       0.54
O      24.94       2.87      18.24
O      30.17       4.07      19.48
O       8.92      16.36      29.63
O      13.78      14.99      27.43
O      18.03      18.39      10.86
O      13.23      19.78       8.56
O      13.74      19.76      19.63
O       8.85      18.56      17.42
O      29.41      15.11       8.74
O      24.52      16.31      10.97
O      13.48       4.62      26.92
O      18.14       3.14      29.43
O       2.19      16.28      18.37
O      28.17      14.99      19.63
O      24.63      18.75      36.48
O      29.25      20.28       1.37
O       8.97       0.77      10.76
O      13.85      30.67       8.56
O      13.99       4.13       0.83
O       9.14       2.82      36.25
O      29.53      30.66      27.36
O      24.66       0.72      29.63
O      18.18       0.71      17.28
O      13.34      30.69      19.60
O       2.48      18.43      29.75
O      28.81      19.71      27.49
O      29.01       4.68       8.10
O       2.50       3.17      10.61
O      18.16      16.28      36.29
O      13.27      15.06       0.83
