20

O      11.60      20.45       4.63
O      11.39      18.25       5.22
Zn       8.35      15.24       7.14
O      10.55      17.17       7.96
O       9.47      15.31       8.73
Zn       9.66      17.97       6.28
Zn      10.07      21.03       5.59
C       9.56      20.96       7.96
C      10.27      16.32       8.85
O       6.44      15.85       7.02
O       8.49      18.91       4.76
O       8.38      21.17       4.63
C       7.91      19.98       4.40
C      11.96      19.21       4.60
O       9.02      16.19       5.39
C       9.45      15.06       4.92
C       6.64      17.13       7.12
O       9.70      19.85       7.34
O       9.91      22.04       7.37
O       9.28      14.01       5.62
