20

Zn      29.43      12.54      23.61
Zn      29.84      15.60      22.92
C      29.94      12.61      21.23
O      29.80      13.73      21.86
O      29.59      11.53      21.83
C      29.23      17.26      20.34
O      27.90      13.12      24.57
O      28.10      15.32      23.98
Zn      31.15      18.34      22.06
O      28.95      16.40      21.24
O      30.03      18.27      20.47
C      31.59      13.60      24.80
O      33.06      17.72      22.18
O      31.01      14.67      24.44
O      31.12      12.41      24.57
C      27.54      14.37      24.60
O      30.48      17.38      23.81
O      30.22      19.56      23.58
C      32.86      16.45      22.08
C      30.04      18.52      24.28
