20

C      28.14      32.02      20.76
C      31.94      37.32      19.49
O      28.65      30.86      20.65
C      28.06      36.70      18.53
Zn      29.71      37.84      20.31
Zn      29.91      34.68      20.30
O      29.82      32.05      17.39
Zn      30.16      31.69      19.34
O      28.36      35.68      19.22
O      28.52      37.89      18.77
C      30.13      33.31      17.37
C      32.29      32.73      20.81
O      31.58      33.75      21.07
C      28.81      36.47      22.59
O      31.90      31.66      20.20
O      31.20      36.35      19.89
O      31.57      38.52      19.75
O      28.95      37.63      22.03
O      29.18      35.36      22.10
O      28.69      32.99      20.08
