20

O      10.47       9.28       1.50
Zn      11.40       7.60       0.50
C       9.48       5.76      -0.33
Zn       9.68       8.34      -5.45
Zn      10.09       8.07      -2.33
O      10.73       9.20      -0.69
C      10.29       9.83       0.37
O       8.15       9.36      -5.01
O       8.35       9.09      -2.75
C      11.84       9.65      -4.57
O       9.20       6.53      -1.30
O      10.28       6.02       0.65
C      10.19       5.99      -5.06
C       7.79       9.56      -3.78
O      10.05       6.77      -4.04
O       9.84       6.43      -6.21
O      13.31       7.63      -0.12
C      13.11       7.36      -1.37
O      11.26       9.45      -3.46
O      11.37       9.26      -5.72
