156

Gd       0.88       5.02       0.17
Gd       5.01       3.63      28.24
Gd       0.89       7.99      14.38
Gd       5.01       0.66      14.04
H       1.20       4.31      24.03
H       1.09       3.77      21.60
H       5.53       2.62      24.55
H       0.94       1.48      20.30
H       1.02       1.03      17.85
H       5.60       3.20      17.34
H       3.30       1.33      22.07
H       3.67       2.75      23.10
H       4.22       1.11      23.59
H       3.66       4.91      19.82
H       3.78       3.50      18.72
H       4.65       5.03      18.34
H       5.87       6.54       1.85
H       5.32       4.34       4.39
H       5.22       4.88       6.82
H       1.40       6.03       3.87
H       5.06       7.17       8.11
H       5.14       7.62      10.56
H       1.48       5.45      11.08
H       7.42       7.32       6.34
H       7.80       5.90       5.31
H       0.09       7.54       4.83
H       7.78       3.74       8.59
H       7.91       5.15       9.70
H       0.53       3.61      10.07
H       1.75       2.11      26.56
H       1.20       8.64       9.81
H       1.09       0.51       7.39
H       5.55       1.69      10.36
H       0.96       2.83       6.10
H       1.02       3.28       3.64
H       5.58       1.13       3.16
H       3.32       2.99       7.87
H       3.69       1.55       8.87
H       4.19       3.19       9.42
H       3.66       8.09       5.60
H       3.80       0.83       4.52
H       4.66       7.98       4.13
H       5.88       6.42      16.03
H       5.33       0.01      18.60
H       5.22       8.14      21.02
H       1.43       6.96      18.05
H       5.08       5.82      22.31
H       5.14       5.37      24.77
H       1.46       7.52      25.26
H       7.44       5.65      20.54
H       7.81       7.10      19.55
H       0.07       5.46      18.99
H       7.79       0.56      22.81
H       7.92       7.82      23.90
H       0.54       0.67      24.28
H       1.76       2.22      12.38
C       7.52       3.74      25.89
C       7.49       3.49      24.43
C       0.33       3.81      23.60
C       0.26       3.51      22.24
C       7.37       2.92      21.67
C       6.28       2.60      22.51
C       6.34       2.88      23.88
C       7.37       2.62      20.22
C       0.17       1.88      19.65
C       0.21       1.62      18.28
C       7.43       2.09      17.46
C       6.38       2.85      18.00
C       6.36       3.13      19.37
C       7.39       1.75      16.01
C       4.04       1.78      22.74
C       4.32       4.36      19.14
C       6.79       6.19       1.36
C       3.40       4.90       2.52
C       3.37       5.16       3.99
C       4.45       4.84       4.81
C       4.39       5.14       6.17
C       3.25       5.73       6.74
C       2.15       6.05       5.90
C       2.22       5.76       4.53
C       3.25       6.03       8.19
C       4.29       6.77       8.76
C       4.33       7.03      10.13
C       3.30       6.56      10.96
C       2.26       5.80      10.41
C       2.23       5.52       9.05
C       3.27       6.90      12.41
C       8.16       6.87       5.68
C       0.20       4.29       9.27
C       2.67       2.46      27.05
C       7.53       0.52      11.69
C       7.50       0.79      10.22
C       0.34       0.47       9.40
C       0.27       0.78       8.04
C       7.38       1.39       7.47
C       6.30       1.72       8.33
C       6.36       1.42       9.69
C       7.38       1.69       6.03
C       0.18       2.43       5.45
C       0.21       2.69       4.08
C       7.42       2.23       3.26
C       6.37       1.48       3.81
C       6.36       1.19       5.18
C       7.38       2.58       1.81
C       4.05       2.54       8.54
C       4.33       8.65       4.94
C       6.80       6.79      15.54
C       3.41       8.13      16.73
C       3.38       7.85      18.19
C       4.46       8.18      19.01
C       4.39       7.87      20.37
C       3.26       7.26      20.94
C       2.17       6.92      20.09
C       2.24       7.23      18.73
C       3.26       6.96      22.39
C       4.30       6.22      22.96
C       4.33       5.95      24.33
C       3.30       6.42      25.15
C       2.25       7.17      24.60
C       2.24       7.46      23.24
C       3.25       6.07      26.60
C       8.17       6.11      19.87
C       0.20       0.00      23.47
C       2.67       1.85      12.87
O       0.28       4.35      26.39
O       6.54       3.32      26.59
O       0.15       1.15      15.50
O       6.34       2.05      15.34
O       5.23       1.95      21.94
O       5.42       3.93      19.96
O       6.67       5.34       0.39
O       7.92       6.59       1.73
O       4.41       4.30       2.02
O       2.41       5.33       1.83
O       4.27       7.50      12.91
O       2.22       6.60      13.08
O       1.10       6.70       6.48
O       1.30       4.72       8.46
O       2.55       3.31      28.02
O       3.80       2.06      26.68
O       0.30       8.60      12.18
O       6.54       0.92      12.38
O       0.14       3.18       1.30
O       6.33       2.29       1.14
O       5.26       2.41       7.77
O       5.43       0.38       5.76
O       6.67       7.68      14.60
O       7.93       6.37      15.89
O       4.42       0.05      16.23
O       2.41       7.73      16.03
O       4.26       5.47      27.11
O       2.20       6.36      27.27
O       1.13       6.24      20.64
O       1.30       8.27      22.65
O       2.55       0.97      13.81
O       3.81       2.27      12.53
