11

N      24.49      12.35      24.60
N      21.56      10.75      24.19
O      22.44      12.72      26.76
C      21.81      10.32      22.96
C      20.18      10.84      24.33
Zn      22.99      11.26      25.51
O      24.00       9.92      26.46
C      21.50      12.25      27.52
C      24.42       8.91      25.74
C      24.92      13.55      25.15
C      25.45      11.93      23.77
