11

C      14.81      20.30      19.10
Zn      14.24      17.54      18.94
C      13.94      16.00      16.69
N      16.18      16.92      19.25
C      17.00      17.61      20.01
C      16.88      15.84      18.74
O      14.08      19.35      19.65
C      13.14      17.07      21.72
C      12.83      15.33      20.42
O      13.78      17.23      17.10
N      13.29      16.57      20.43
