11

Zn       9.20      17.38      20.12
O       9.56      15.54      19.59
N       7.23      17.84      19.75
C       8.74      14.64      20.09
C       6.29      17.78      20.68
C       6.62      18.21      18.56
O       9.60      17.85      21.95
N      10.12      18.37      18.62
C       9.51      19.13      22.22
C      10.59      19.61      18.65
C      10.34      17.87      17.34
