11

C      12.81      18.12      12.34
O      10.72      21.97      13.51
Zn      11.55      20.60      12.28
C      14.08      21.29      10.76
C      13.54      22.92      12.12
N      13.10      21.73      11.55
N      10.20      20.12      10.84
O      12.52      19.13      13.13
C      10.46      19.67       9.62
C       8.82      20.15      10.99
C       9.81      21.28      14.15
