94

V       6.59       9.12       9.93
V       3.12       8.81      10.02
V       2.61      13.48       0.04
V       5.94       4.45      19.91
H       1.14       4.31       9.62
H       1.33      14.70       6.02
H       1.06       6.64       6.09
H       0.89       4.64       0.36
H       0.95       6.73       4.04
H       0.89       6.74       1.64
H       1.09       1.17       3.66
H       6.03       7.30      13.82
H       2.13       6.93      13.97
H       5.91       6.19      16.01
H       2.04       6.19      15.98
H       6.62      12.06       3.96
H       3.59      11.56       3.95
H       6.64      10.92       6.14
H       3.57      10.87       5.98
H       4.30      13.65      10.37
H       3.97       3.16      13.88
H       4.14      15.69      11.72
H       4.84      11.27      13.87
H       4.90      13.31      19.60
H       4.94      11.20      15.93
H       5.07      11.22      18.33
H       4.28      16.73      16.29
H       0.81      14.59       8.09
C       4.63      10.06       7.71
C       4.66      11.13      11.26
C       1.19       7.87      12.24
C       1.17       6.81       8.68
C       1.08       3.15       7.79
C       1.11       5.57       7.90
C       0.93       4.60       1.45
C       0.93       5.79       2.17
C       0.96       5.77       3.56
C       1.01       4.54       4.28
C       1.02       3.33       3.53
C       1.04       4.48       5.71
C       1.06       3.21       6.37
C       1.09       2.04       5.59
C       1.07       2.10       4.20
C       1.06       5.65       6.51
C       1.12       4.34       8.53
C       0.98       3.38       2.11
C       6.98       7.01      14.26
C       1.17       7.23      13.57
C       6.91       6.37      15.61
C       1.04       6.02      16.35
C       5.66      11.72       4.35
C       4.56      11.90       3.59
C       5.66      11.08       5.69
C       4.56      10.71       6.38
C       4.29      14.73      12.22
C       4.59      12.34      12.06
C       4.83      13.34      18.52
C       4.93      12.15      17.80
C       4.85      12.16      16.41
C       4.66      13.36      15.69
C       4.55      14.58      16.44
C       4.58      13.41      14.27
C       4.39      14.66      13.62
C       4.28      15.83      14.37
C       4.37      15.80      15.76
C       4.69      12.26      13.45
C       4.39      13.58      11.45
C       4.64      14.55      17.85
C       4.57      15.77      18.65
C       4.56      12.54       2.26
C       0.93       2.15       1.30
C       0.93       5.39      17.68
C       1.02       1.86       8.55
O       3.54      10.54      10.99
O       5.80       9.88       8.24
O       6.99       7.39       8.96
O       5.83      10.69      10.93
O       7.02       8.20      11.67
O       3.51       9.73       8.28
O       4.69       8.15      10.21
O       2.36       8.05      11.71
O       2.34       7.24       9.02
O       1.21       9.78       9.74
O       5.69      12.87       1.70
O       3.40      16.21      18.99
O       2.05       5.06      18.25
O       3.40      12.72       1.73
O       2.04       1.57       1.01
O       5.69      16.35      18.94
O       4.38       5.11      19.71
O       6.70       1.73       0.96
O       6.70       5.21      18.22
O       1.04      12.82       0.24
O       1.54      15.44       9.71
