16

C       0.69      11.39       0.93
C       0.17      11.60       2.22
C      -0.93      12.43       2.40
C      -1.55      13.02       1.28
C      -1.04      12.80      -0.01
C       0.08      12.00      -0.18
C       1.88      10.49       0.71
C      -2.74      13.88       1.47
O       2.22       9.73       1.68
O       2.44      10.56      -0.43
O      -3.07      14.31       2.62
O      -3.45      14.21       0.44
H       0.65      11.11       3.06
H      -1.34      12.62       3.39
H      -1.50      13.29      -0.86
H       0.51      11.82      -1.16
