16

C      10.24       1.90       8.24
C       5.63      -1.50       7.51
H       9.29       0.09       9.93
H       7.29      -1.40       9.63
H       6.70       0.19       5.68
H       8.69       1.68       5.97
O       5.34      -2.29       8.48
C       9.11       0.97       7.98
O      10.71       2.01       9.41
O       4.94      -1.36       6.44
O      10.73       2.65       7.28
C       8.72       0.10       9.01
C       7.61      -0.72       8.84
C       6.87      -0.67       7.65
C       7.28       0.17       6.61
C       8.40       1.00       6.77
