16

C       9.11       4.34      17.18
C       8.72       3.89      15.90
C       7.61       4.44      15.28
C       6.87       5.45      15.92
C       7.28       5.93      17.17
C       8.40       5.37      17.80
C      10.24       3.65      17.85
C       5.63       5.98      15.27
O      10.73       4.11      18.98
O      10.71       2.58      17.36
O       4.94       6.84      15.92
O       5.34       5.53      14.10
H       9.30       3.09      15.44
H       7.29       4.09      14.30
H       6.71       6.72      17.64
H       8.70       5.72      18.79
