28

O      23.43      14.55       0.94
O      24.38      11.36       1.54
O      27.59      13.44       1.54
O      26.78      12.75       3.51
Cd      26.76      16.48      -2.05
Cd      25.15      13.49       2.05
C      26.84      13.30      -3.37
Cd      24.26      16.90       0.73
Cd      27.65      13.07      -0.73
C      26.96      18.69      -0.40
O      24.43      17.68       2.91
O      28.47      15.42      -0.94
C      24.94      11.28       0.40
C      27.77      12.91       2.71
O      29.87      13.68      -0.94
O      22.03      16.29       0.94
C      22.24      15.03       1.06
O      25.12      17.22      -3.51
C      24.14      17.06      -2.71
C      29.67      14.93      -1.06
O      26.33      17.68       0.10
O      25.58      12.29      -0.10
O      24.32      16.52      -1.54
C      25.06      16.66       3.37
O      25.44      15.71       2.58
O      27.47      12.29      -2.91
O      27.52      18.61      -1.54
O      26.47      14.26      -2.58
