640

C       8.05      10.05      22.77
C       7.26       8.89      22.96
C       7.83       7.63      23.25
C       9.22       7.54      23.48
C      10.04       8.69      23.32
C       9.45       9.91      22.95
C       7.47      11.30      22.37
C       6.28      11.33      21.59
C       5.65      12.54      21.26
C       6.25      13.77      21.64
C       7.44      13.76      22.39
C       8.03      12.54      22.76
C      11.40       8.66      23.59
C       7.09       6.50      22.97
C       4.30      12.54      21.00
C       8.09      14.96      22.62
C      18.39      11.28      36.07
C      17.61      12.45      35.96
C      18.17      13.70      35.63
C      19.54      13.77      35.29
C      20.35      12.62      35.39
C      19.78      11.39      35.79
C      17.82      10.03      36.48
C      16.72       9.98      37.36
C      16.09       8.76       0.33
C      16.64       7.55      37.22
C      17.73       7.57      36.32
C      18.31       8.80      35.96
C       0.52      12.64      35.03
C      17.44      14.84      35.89
C      14.76       8.77       0.69
C      18.32       6.38      35.97
C      13.26      17.48      28.76
C      12.47      17.33      27.60
C      13.04      17.06      26.34
C      14.43      16.83      26.25
C      15.25      16.97      27.39
C      14.66      17.32      28.63
C      12.67      17.82      30.03
C      11.47      18.58      30.11
C      10.84      18.84      31.34
C      11.45      18.41      32.54
C      12.65      17.66      32.49
C      13.23      17.36      31.25
C      16.60      16.66      27.38
C      12.28      17.29      25.21
C       9.49      19.10      31.36
C      13.30      17.39      33.67
C       2.73       4.02      29.95
C       1.93       4.15      31.11
C       2.48       4.46      32.37
C       3.86       4.75      32.47
C       4.69       4.64      31.33
C       4.12       4.26      30.09
C       2.18       3.62      28.69
C       1.04       2.76      28.63
C       0.42       2.44      27.41
C       1.00       2.90      26.20
C       2.13       3.75      26.23
C       2.70       4.10      27.47
C       6.03       4.96      31.37
C       1.73       4.19      33.49
C      20.25       2.10      27.40
C       2.74       4.08      25.04
C      18.46      28.81       3.77
C      17.55      27.75       4.01
C      17.98      26.41       4.07
C      19.36      26.11       3.96
C      20.31      27.15       3.77
C      19.84      28.48       3.65
C      18.02      30.16       3.60
C      16.76      30.43       3.02
C      16.28      31.75       2.87
C      17.09      32.84       3.25
C      18.38      32.60       3.80
C      18.82      31.27       3.98
C       0.52      26.94       3.79
C      17.07      25.38       3.98
C      14.95      31.95       2.65
C      19.24      33.66       3.95
C       7.27      30.10      17.56
C       6.34      31.13      17.29
C       6.75      32.41      16.88
C       8.12      32.67      16.65
C       9.08      31.66      16.91
C       8.64      30.41      17.39
C       6.88      28.80      18.02
C       5.71      28.61      18.80
C       5.28      27.33      19.19
C       6.07      26.20      18.87
C       7.24      26.36      18.10
C       7.62      27.64      17.66
C      10.43      31.83      16.67
C       5.90      33.48      17.07
C       3.95      27.13      19.46
C       8.04      25.27      17.85
C       2.39      36.32      10.15
C       1.43      36.13       9.13
C       1.80      36.06       7.77
C       3.17      36.07       7.42
C       4.16      36.23       8.43
C       3.75      36.38       9.77
C       2.00      36.51      11.52
C       0.76      37.11      11.85
C       0.35      37.27      13.18
C       1.20      36.88      14.24
C       2.47      36.32      13.95
C       2.84      36.12      12.60
C       5.52      36.20       8.15
C       0.85      36.26       6.79
C      20.18       0.12      13.45
C       3.38      36.19      14.97
C      13.02      22.42      11.36
C      12.14      22.72      12.43
C      12.62      22.97      13.73
C      14.02      23.01      13.97
C      14.92      22.71      12.91
C      14.41      22.40      11.64
C      12.54      22.11      10.05
C      11.31      21.43       9.87
C      10.80      21.17       8.58
C      11.56      21.52       7.44
C      12.80      22.19       7.60
C      13.26      22.49       8.89
C      16.30      22.83      13.04
C      11.77      22.89      14.81
C       9.46      20.91       8.43
C      13.58      22.40       6.50
C      13.30       7.21      23.61
C      13.68       5.95      23.13
C      14.75       5.25      23.72
C      15.45       5.79      24.82
C      15.15       7.13      25.21
C      14.07       7.81      24.63
C      16.42       5.05      25.57
C      16.51       3.63      25.54
C      17.49       2.94      26.26
C      18.39       3.64      27.08
C      18.28       5.04      27.18
C      17.31       5.74      26.45
C      17.30       7.23      26.50
C      15.86       7.77      26.36
C       2.47      14.03      35.07
C       2.84      15.30      35.55
C       3.92      15.99      34.96
C       4.63      15.43      33.87
C       4.34      14.09      33.49
C       3.25      13.41      34.07
C       5.63      16.17      33.14
C       5.71      17.58      33.16
C       6.73      18.26      32.47
C       7.66      17.54      31.70
C       7.55      16.14      31.61
C       6.54      15.45      32.31
C       6.52      13.97      32.27
C       5.07      13.44      32.37
C      18.50      16.52      25.93
C      18.89      16.94      24.65
C      19.94      16.29      23.98
C      20.61      15.20      24.56
C      20.30      14.86      25.91
C      19.24      15.50      26.57
C       0.43      14.41      23.86
C       0.52      14.40      22.44
C       1.54      13.67      21.79
C       2.45      12.92      22.54
C       2.32      12.85      23.94
C       1.31      13.58      24.60
C       1.27      13.57      26.08
C      20.99      13.73      26.59
C       7.93       4.94      32.81
C       8.30       4.45      34.08
C       9.35       5.05      34.80
C      10.05       6.16      34.28
C       9.77       6.56      32.94
C       8.71       5.97      32.23
C      11.00       6.92      35.05
C      11.05       6.88      36.47
C      12.01       7.61      37.19
C      12.91       8.44      36.50
C      12.83       8.56      35.11
C      11.88       7.82      34.38
C      11.90       7.87      32.89
C      10.48       7.72      32.32
C       2.18      25.41       4.53
C       2.50      24.07       4.27
C       3.60      23.47       4.91
C       4.37      24.17       5.86
C       4.08      25.55       6.07
C       2.97      26.15       5.43
C       5.43      23.56       6.61
C       5.55      22.15       6.77
C       6.64      21.58       7.44
C       7.62      22.42       8.02
C       7.47      23.81       7.94
C       6.39      24.39       7.26
C       6.31      25.87       7.14
C       4.84      26.34       7.08
C      12.23      33.36      16.48
C      12.65      34.62      16.95
C      13.87      35.16      16.54
C      14.71      34.48      15.62
C      14.32      33.17      15.20
C      13.08      32.64      15.60
C      15.93      35.03      15.11
C      16.17      36.43      15.07
C      17.36      36.94      14.51
C      18.31      36.06      13.97
C      18.08      34.68      13.98
C      16.89      34.16      14.53
C      16.66      32.69      14.52
C      15.17      32.39      14.26
C       7.14      35.22       6.75
C       7.50      35.52       5.42
C       8.68      34.98       4.88
C       9.49      34.09       5.64
C       9.13      33.84       6.99
C       7.95      34.38       7.53
C      10.66      33.48       5.09
C      10.88      33.34       3.70
C      12.06      32.78       3.20
C      13.05      32.31       4.09
C      12.82      32.37       5.47
C      11.63      32.93       5.98
C      11.44      33.03       7.45
C       9.95      32.91       7.82
C      18.09      23.05      14.60
C      18.43      22.65      15.90
C      19.54      23.23      16.55
C      20.30      24.25      15.93
C      20.01      24.58      14.57
C      18.89      24.00      13.94
C       0.16      24.99      16.62
C       0.24      25.07      18.03
C       1.25      25.81      18.67
C       2.18      26.52      17.90
C       2.09      26.50      16.50
C       1.09      25.75      15.85
C       1.07      25.70      14.37
C      20.77      25.63      13.86
C       6.97       4.93      21.17
C       5.60       4.89      20.86
C       5.13       4.03      19.86
C       6.00       3.19      19.12
C       7.40       3.29      19.39
C       7.87       4.14      20.41
C       5.54       2.27      18.13
C       4.19       1.86      18.06
C       3.75       0.93      17.11
C       4.64       0.40      16.17
C       5.99       0.81      16.19
C       6.45       1.68      17.20
C       7.87       2.13      17.19
C       8.38       2.49      18.60
C      17.38      16.53       0.22
C      16.00      16.70       0.41
C      15.53      17.64       1.34
C      16.42      18.42       2.12
C      17.82      18.20       1.96
C      18.28      17.27       1.01
C      15.96      19.36       3.10
C      14.64      19.88       3.08
C      14.17      20.73       4.09
C      15.01      21.08       5.16
C      16.33      20.61       5.18
C      16.83      19.81       4.13
C      18.22      19.28       4.21
C      18.80      18.93       2.81
C      12.13      18.99      23.53
C      10.74      19.11      23.34
C      10.23      20.04      22.42
C      11.08      20.88      21.67
C      12.48      20.79      21.89
C      12.99      19.84      22.81
C      10.58      21.87      20.76
C       9.26      21.81      20.23
C       8.75      22.82      19.41
C       9.54      23.95      19.11
C      10.86      24.02      19.59
C      11.40      22.96      20.36
C      12.78      23.09      20.91
C      13.42      21.71      21.19
C       1.64       2.48      35.17
C       0.27       2.18      35.24
C      20.97       1.22      36.14
C       0.69       0.53      37.02
C       2.08       0.80      36.90
C       2.54       1.78      36.00
C       0.23      36.92       0.59
C      20.04      36.84       0.99
C      19.60      35.87       1.90
C      20.50      34.92       2.42
C       0.69      34.97       2.03
C       1.16      36.00       1.17
C       2.58      36.01       0.74
C       3.07       0.05       0.36
C       9.28      16.39      21.19
C      10.63      16.61      20.87
C      10.99      17.62      19.97
C      10.01      18.39      19.29
C       8.63      18.13      19.57
C       8.29      17.16      20.54
C      10.34      19.34      18.27
C      11.61      19.96      18.20
C      11.92      20.86      17.17
C      10.97      21.15      16.18
C       9.70      20.55      16.23
C       9.36      19.69      17.29
C       8.02      19.04      17.31
C       7.55      18.75      18.75
C      19.67       4.87      37.20
C      21.01       4.81       0.22
C       0.26       3.87       1.18
C      20.50       3.00       1.81
C      19.13       3.09       1.43
C      18.74       3.98       0.41
C      20.88       2.12       2.88
C       1.08       1.78       3.11
C       1.46       1.02       4.22
C       0.49       0.53       5.11
C      20.29       0.80       4.87
C      19.90       1.56       3.75
C      18.46       1.90       3.59
C      18.06       2.35       2.16
C       3.98       2.79      23.49
C       5.30       2.36      23.36
C       5.65       1.44      22.36
C       4.67       0.87      21.50
C       3.32       1.29      21.67
C       3.00       2.27      22.62
C       4.98      37.20      20.57
C       6.30      36.97      20.10
C       6.59      35.91      19.24
C       5.57      35.05      18.81
C       4.25      35.26      19.23
C       3.94      36.36      20.08
C       2.55      36.50      20.59
C       2.21       0.60      20.95
C      14.54      18.80      35.10
C      15.89      19.15      35.26
C      16.26      20.08      36.24
C      15.29      20.76      37.02
C      13.92      20.45      36.82
C      13.56      19.44      35.90
C      15.64      21.82       0.55
C      16.93      21.93       1.12
C      17.26      23.00       1.96
C      16.31      23.99       2.25
C      15.02      23.90       1.72
C      14.66      22.79       0.92
C      13.30      22.73       0.33
C      12.84      21.27       0.07
H       6.25       8.93      22.84
H       8.88      12.56      23.34
H       9.73       6.25      24.77
H       5.63      15.08      20.41
H      10.07      10.71      22.78
H       5.83      10.46      21.30
H       7.58      15.70      23.05
H      11.77       9.37      24.18
H       6.16       6.41      23.32
H       3.95      12.98      20.18
H      16.60      12.42      36.16
H      19.09       8.79      35.29
H      19.98      15.04      33.96
H      16.25       6.14       1.06
H      20.39      10.58      35.90
H      16.30      10.84       0.35
H      17.77       5.67      35.54
H       0.84      11.99      34.36
H      16.52      14.94      35.54
H      14.45       8.21       1.45
H      11.45      17.45      27.64
H      14.08      16.79      31.24
H      14.91      15.53      24.95
H      10.83      19.57      33.92
H      15.27      17.46      29.43
H      11.01      18.91      29.26
H      12.81      16.96      34.42
H      16.96      16.11      28.11
H      11.37      16.90      25.12
H       9.14      19.91      31.82
H       0.92       3.98      31.05
H       3.50       4.74      27.46
H       4.30       6.07      33.75
H       0.55       1.70      24.80
H       4.75       4.13      29.29
H       0.61       2.42      29.49
H       2.21       4.55      24.34
H       6.37       5.61      30.71
H       0.80       4.52      33.57
H      19.94       1.33      26.86
H      16.55      27.94       4.11
H      19.74      31.12       4.41
H      19.75      24.49       4.87
H      16.56      34.33       2.20
H      20.51      29.22       3.44
H      16.15      29.67       2.72
H      18.93      34.47       4.45
H       1.15      27.70       3.65
H      17.07      24.66       4.66
H      14.62      32.37       1.81
H       5.34      30.97      17.44
H       8.44      27.72      17.06
H       8.47      33.94      15.29
H       5.89      24.79      20.13
H       9.35      29.71      17.64
H       5.12      29.41      19.04
H       7.68      24.51      17.32
H      10.96      31.03      16.38
H       5.64      34.07      16.31
H       3.66      26.62      20.27
H       0.43      36.09       9.35
H       3.75      35.69      12.42
H       3.40      35.14       5.78
H       0.67       0.55      15.74
H       4.47      36.57      10.47
H       0.13       0.05      11.11
H       3.11      35.69      15.78
H       6.18      36.58       8.79
H       0.38      35.49       6.37
H      19.86       1.00      13.78
H      11.13      22.72      12.28
H      14.15      23.00       8.98
H      14.55      24.23      15.31
H      11.23      20.36       5.98
H      15.06      22.13      10.90
H      10.74      21.16      10.68
H      13.22      22.93       5.74
H      16.83      23.11      12.25
H      11.83      23.56      15.54
H       9.15      20.13       7.91
H      13.79       8.72      25.01
H      15.87       3.07      24.97
H      17.60       1.93      26.13
H      18.98       5.57      27.71
H      13.12       5.48      22.41
H      17.91       7.61      25.68
H      17.72       7.61      27.44
H      15.91       8.85      26.23
H      15.29       7.56      27.27
H      14.96       4.32      23.36
H       2.97      12.50      33.70
H       5.06      18.15      33.70
H       6.83      19.27      32.59
H       8.26      15.61      31.11
H       2.27      15.78      36.25
H       7.10      13.59      33.12
H       6.96      13.58      31.35
H       5.11      12.36      32.50
H       4.53      13.65      31.44
H       4.12      16.92      35.32
H      18.95      15.16      27.49
H      21.05      14.94      21.86
H       1.65      13.78      20.78
H       3.03      12.35      24.49
H      18.34      17.65      24.15
H       1.88      14.40      26.45
H       1.68      12.64      26.49
H      21.02      13.88      27.68
H      20.42      12.81      26.40
H      20.16      16.62      23.03
H       8.44       6.35      31.32
H      10.42       6.29      37.01
H      12.10       7.46       0.83
H      13.53       9.11      34.60
H       7.73       3.73      34.54
H      12.53       7.06      32.53
H      12.32       8.81      32.53
H      10.56       7.59      31.24
H       9.90       8.62      32.51
H       9.54       4.68      35.73
H       2.70      27.11       5.68
H       4.86      21.51       6.37
H       6.74      20.57       7.47
H       8.21      24.42       8.33
H       1.90      23.50       3.66
H       6.83      26.17       6.22
H       6.80      26.37       7.98
H       4.83      27.41       6.83
H       4.37      26.21       8.05
H       3.79      22.49       4.68
H      12.78      31.75      15.21
H      15.49      37.10      15.41
H      17.52       0.58      14.52
H      18.78      34.04      13.60
H      12.04      35.16      17.57
H      16.95      32.29      15.50
H      17.26      32.19      13.76
H      15.01      31.32      14.38
H      14.91      32.67      13.24
H      14.13      36.08      16.91
H       7.64      34.12       8.47
H      10.19      33.65       3.01
H      12.21      32.74       2.18
H      13.55      32.05       6.12
H       6.89      36.10       4.84
H      11.83      33.99       7.79
H      11.99      32.24       7.98
H       9.83      33.12       8.89
H       9.61      31.89       7.64
H       8.91      35.24       3.93
H      18.62      24.35      13.02
H      20.73      24.59      18.63
H       1.32      25.79      19.69
H       2.80      26.98      15.94
H      17.84      22.00      16.42
H       1.60      24.80      14.04
H       1.55      26.57      13.92
H      20.79      25.44      12.78
H      20.28      26.60      14.03
H      19.73      22.92      17.51
H       8.87       4.22      20.59
H       3.48       2.24      18.69
H       2.75       0.72      17.07
H       6.62       0.49      15.45
H       4.94       5.52      21.33
H       7.94       3.01      16.54
H       8.52       1.36      16.77
H       9.32       3.05      18.48
H       8.61       1.58      19.16
H       4.13       4.08      19.65
H      19.29      17.10       0.92
H      13.97      19.60       2.37
H      13.18      20.98       4.09
H      16.92      20.80       6.00
H      15.32      16.12      37.28
H      18.20      18.37       4.83
H      18.88      20.00       4.69
H      19.71      18.35       2.96
H      19.08      19.86       2.30
H      14.52      17.68       1.48
H      14.00      19.80      22.99
H       8.63      21.05      20.48
H       7.76      22.79      19.16
H      11.40      24.87      19.44
H      10.08      18.56      23.91
H      12.72      23.66      21.84
H      13.42      23.64      20.21
H      14.33      21.87      21.77
H      13.71      21.25      20.24
H       9.21      20.12      22.38
H       3.55       1.95      35.90
H      19.34       0.09       0.61
H      18.60      35.81       2.10
H       1.33      34.24       2.34
H      20.77       2.61      34.59
H       2.67      35.35      37.24
H       3.22      35.62       1.53
H       4.02      37.32      37.20
H       3.27       0.62       1.27
H      19.97       1.00      36.11
H       7.30      16.94      20.68
H      12.33      19.76      18.89
H      12.87      21.23      17.11
H       9.04      20.71      15.46
H      11.35      15.98      21.24
H       8.10      18.10      16.75
H       7.27      19.67      16.81
H       6.67      18.10      18.69
H       7.24      19.68      19.23
H      11.98      17.70      19.73
H      17.74       4.10       0.22
H       1.83       2.11       2.51
H       2.46       0.86       4.39
H      19.60       0.48       5.55
H       0.51       5.53      37.28
H      18.24       2.71       4.30
H      17.84       1.05       3.86
H      17.17       2.98       2.26
H      17.77       1.48       1.57
H       1.23       3.94       1.49
H       2.01       2.49      22.79
H       7.07       0.19      20.39
H       7.57      35.73      18.98
H       3.52      34.59      18.97
H       6.01       2.63      24.06
H       2.45      35.88      21.48
H       1.82      36.15      19.85
H       1.30       0.58      21.56
H       1.97       1.15      20.04
H       6.61       1.10      22.36
H      12.57      19.28      35.70
H      17.66      21.24       0.92
H      18.23      23.08       2.29
H      14.35      24.65       1.89
H      16.59      18.78      34.61
H      13.31      23.27      36.75
H      12.56      23.21       0.98
H      11.95      21.30      36.81
H      12.55      20.81       1.02
H      17.25      20.35      36.27
N      19.56       3.17      27.45
N      12.09       7.62      23.29
N       8.83      18.01      31.35
N       1.26      13.62      35.41
N       3.63      12.56      22.09
N      17.30      16.89      26.33
N      14.06       8.81      36.99
N       6.73       4.61      32.38
N       8.79      22.00       8.44
N       0.99      25.83       4.21
N      19.50      36.42      13.56
N      11.00      32.97      16.76
N      14.26      31.95       3.73
N       5.93      35.52       7.14
N       3.30      27.03      18.37
N      16.87      22.77      14.19
N       4.11      37.24      15.08
N       7.49       5.86      21.94
N      14.44      21.47       6.29
N      17.87      15.54      36.88
N       8.92      25.06      18.76
N      12.65      18.29      24.51
N      19.99      33.82       2.92
N       2.15       3.21      34.20
N      11.40      21.69      15.06
N       8.90      15.23      21.67
N       0.96       0.02       6.21
N      19.23       6.04      36.81
N       5.94      33.92      18.27
N       3.59       3.19      24.68
N      16.75      25.12       2.76
N      14.14      18.32      33.94
O       9.76       6.32      23.79
O       5.61      14.95      21.39
O      20.07      14.98      34.94
O      16.02       6.36       0.13
O      14.96      16.51      25.03
O      10.82      18.60      33.74
O       4.37       5.09      33.69
O       0.37       2.65      25.01
O      19.74      24.80       3.94
O      16.62      34.12       3.16
O       8.51      33.92      16.27
O       5.64      24.94      19.19
O       3.53      36.07       6.10
O       0.78      36.97      15.54
O      14.47      23.25      15.23
O      11.06      21.31       6.19
