13

Co      16.89       9.59       0.00
N      17.62      11.90      -1.73
N      14.17      10.67      -0.41
O      18.79       8.99      -0.51
O      17.68      11.14       1.14
N      16.17       7.27       1.73
O      16.11       8.03      -1.14
N      19.63       8.50       0.40
N      16.82       7.49      -2.13
O      15.01      10.18       0.51
O      16.83      10.83      -1.65
O      16.95       8.34       1.66
N      16.97      11.68       2.13
