13

Co      10.12      14.38       8.30
O       8.21      13.64       8.56
O      10.05      15.18      10.20
O      10.91      12.63       9.07
O       9.35      16.14       7.54
O      10.20      13.60       6.41
N       7.38      14.19       9.44
N      12.87      14.58       7.17
N      10.85      14.73      11.17
N      10.20      11.50       9.04
O      12.05      15.13       8.06
N       9.40      14.05       5.44
N      10.05      17.27       7.56
