17

C       9.63       1.40      15.84
O      13.68       3.63      13.12
Cu      12.58       5.28      13.30
Cu      10.79       4.05      14.52
C      10.38       6.84      14.19
O      12.05       2.53      14.27
O       9.21       2.74      15.43
C      10.58       4.11      11.67
O      11.64       4.83      11.63
H       8.44       2.61      14.84
O      13.48       5.63      15.02
O      11.83       4.56      16.16
O      10.01       3.68      12.73
O      11.51       6.91      13.59
O       9.81       5.78      14.61
C      12.93       5.20      16.09
C      13.18       2.59      13.67
