17

C      10.58      14.33       7.18
H       8.44      15.83       4.01
Cu      10.79      14.39       4.33
Cu      12.58      13.17       5.54
O      11.51      11.54       5.26
O       9.81      12.67       4.24
C      10.38      11.60       4.65
O      11.64      13.61       7.21
C      12.93      13.25       2.76
O      13.68      14.81       5.73
O      12.05      15.91       4.58
C      13.18      15.85       5.17
O       9.21      15.70       3.42
C       9.63      17.05       3.01
O      10.01      14.76       6.12
O      13.48      12.81       3.83
O      11.83      13.89       2.69
