22

Cr       4.51       8.93       0.17
Cr       1.09       8.91      -0.10
Cr       2.78       5.95       0.03
C       2.85      10.47      -1.92
C       0.71       6.52      -2.03
C       5.19       6.74      -1.73
C       2.58      10.60       1.87
C       0.42       6.53       1.75
C       4.33       7.16       2.18
O       5.55       7.86      -1.26
O       3.85      10.03      -1.28
O       1.66      10.25      -1.56
O       0.60       7.68      -1.53
O       1.51       5.66      -1.58
O       4.23       6.06      -1.26
O       5.32       7.88       1.73
O       3.65      10.05       1.50
O       1.44      10.26       1.44
O       0.40       7.69       1.24
O       1.29       5.67       1.41
O       4.02       6.07       1.52
O       2.79       7.93       0.03
