12

Cu       6.16       4.47       8.68
C       5.00       4.48       5.99
C       4.66       4.74      11.07
H       8.64       3.64       9.57
C       5.08       7.14       8.49
N       8.94       4.96       8.16
N       8.16       4.26       8.90
O       6.14       6.42       8.63
O       5.77       2.56       8.68
O       6.06       4.39       6.73
C       4.59       2.08       8.57
O       5.85       4.59      10.58
