12

C       5.00       4.48       5.99
Cu       3.50       4.75       8.38
C       4.66       4.74      11.07
H       1.03       5.58       7.49
C       4.59       2.08       8.57
N       1.50       4.96       8.16
N       0.72       4.26       8.90
O       3.52       2.80       8.43
O       3.89       6.66       8.38
C       5.08       7.14       8.49
O       3.61       4.83      10.33
O       3.81       4.63       6.48
