13

C       3.99      -2.12       9.95
O       2.87      -1.77       9.52
C       4.40      -5.31       8.37
O       3.73      -4.15       8.69
C       5.70      -4.11       9.77
C       4.54      -3.42       9.53
C       3.71      -6.20       7.42
C       5.62      -5.33       9.02
O       2.51      -5.79       7.13
O       4.29      -7.20       6.96
H       6.34      -6.13       8.95
H       6.52      -3.76      10.39
O       4.75      -1.46      10.78
