13

C      12.55       7.10       8.17
C      13.16       7.59       7.02
C      13.59       8.92       6.99
C      13.46       9.69       8.15
C      12.82       9.14       9.26
C      14.18       9.51       5.73
H      12.18       6.08       8.23
H      13.27       6.94       6.16
H      13.81      10.71       8.19
H      12.67       9.72      10.17
O      13.66       9.04       4.65
O      15.09      10.36       5.83
N      12.35       7.87       9.27
