13

C       6.15       0.17       5.41
H       6.11       0.82       6.28
H       7.11      -1.48       6.41
C       7.14      -3.32       4.36
H       6.01      -2.03       2.27
C       6.07      -1.40       3.16
H       5.16       0.36       2.27
C       6.63      -1.91       4.33
N       5.63       0.67       4.27
C       5.60      -0.10       3.16
O       8.09      -3.55       5.17
O       6.55      -4.12       3.58
C       6.69      -1.11       5.48
