13

N      10.23       9.05      10.88
H      10.65       9.36      12.89
H       9.77      11.72      12.91
H       8.73      11.20       8.75
H       9.75       8.93       8.86
O       7.68      13.27      10.04
O       9.24      13.85      11.61
C      10.22       9.81      12.01
C       9.73      11.11      12.01
C       9.17      11.63      10.84
C       9.15      10.84       9.69
C       9.71       9.57       9.74
C       8.65      13.04      10.83
