13

O       6.18      12.08       0.55
H      11.53      12.40      -1.61
H      10.17      11.58       0.34
C       8.30      12.26      -0.52
C       9.69      12.07      -0.51
C      10.45      12.51      -1.59
C       8.55      13.33      -2.67
C       7.74      12.93      -1.61
C       7.38      11.77       0.59
H       6.68      13.14      -1.63
H       8.14      13.83      -3.54
N       9.89      13.12      -2.66
O       7.99      11.03       1.48
