13

O       2.63       1.37      13.40
O       4.43      -0.04      13.16
H       7.49       1.60      16.44
H       6.33       0.49      14.50
H       2.77       2.65      15.59
H       4.09       3.74      17.44
C       6.46       1.81      16.20
C       5.81       1.19      15.14
C       4.47       1.51      14.90
C       3.82       2.41      15.75
C       4.55       3.00      16.78
C       3.75       0.90      13.71
N       5.85       2.71      17.00
