13

C       7.33       4.16       0.54
C       7.88       3.50       1.64
C       7.06       3.11       2.68
C       8.27       4.63      -0.56
N       5.72       3.34       2.66
H       4.10       4.08       1.60
H       5.48       4.86      -0.35
H       8.94       3.28       1.67
H       7.45       2.61       3.56
O       7.68       5.34      -1.47
O       9.48       4.34      -0.48
C       5.18       3.95       1.58
C       5.95       4.37       0.51
