13

C       1.22      11.70       0.02
C       1.19      10.95      -1.17
C       1.72      11.52      -2.32
C       0.73      11.11       1.31
H       2.61      14.52      -1.28
H       1.80      13.58       0.92
H       0.79       9.94      -1.19
H       1.78      10.96      -3.25
O      -0.21      10.27       1.21
O       1.33      11.52       2.35
N       2.21      12.78      -2.34
C       2.20      13.51      -1.20
C       1.74      13.00       0.00
