13

O       9.77       9.26       4.97
O       8.35       8.70       3.28
H      11.29       4.80       6.22
H      10.19       7.05       6.27
C      10.93       5.27       5.31
C      10.32       6.51       5.33
C       9.88       7.08       4.13
C      10.04       6.34       2.95
C      10.69       5.11       3.00
C       9.27       8.46       4.11
H       9.68       6.72       2.00
H      10.87       4.54       2.09
N      11.15       4.59       4.16
