13

N       3.41       2.00       5.88
C       3.22       2.79       6.97
C       2.59       2.32       8.11
C       2.11       1.01       8.15
C       2.25       0.22       7.00
C       2.92       0.74       5.89
C       1.49       0.46       9.41
O       1.99       0.95      10.48
O       0.56      -0.37       9.30
H       3.61       3.80       6.90
H       2.49       2.97       8.98
H       1.87      -0.80       6.97
H       3.07       0.14       5.00
