13

O       0.33       8.30       3.18
C       4.22       5.92       4.28
C       3.59       7.15       4.12
C       2.20       7.17       4.03
C       1.48       5.98       4.15
C       2.18       4.80       4.32
C       1.43       8.44       3.80
H       5.30       5.83       4.34
H       4.18       8.06       4.06
O       1.95       9.51       4.27
N       3.53       4.76       4.37
H       1.67       3.84       4.40
H       0.39       5.98       4.10
