43

Zn       6.32       5.46       4.41
Zn       3.92       5.69      10.01
Zn       6.26       2.69      10.47
Zn       8.66       2.46       4.87
Zn       1.39       4.07       7.44
C       6.36       6.23      11.11
C       1.29       6.62       9.42
C       5.01       0.51       9.56
C       8.61       5.84       2.54
C      10.08       4.35       2.99
C       5.29       5.54       7.33
C       3.96       4.51       6.02
C       3.78       6.11       2.77
C       5.11       4.87       1.66
C       6.22       1.92       3.77
C      11.29       1.52       5.46
C       7.57       7.64       5.32
C       3.97       2.31      12.35
C       2.50       3.80      11.90
C       7.29       2.60       7.55
C       8.62       3.64       8.86
C       8.80       2.03      12.11
C       7.47       3.28      13.23
N       9.00       4.07       3.73
N       8.06       5.03       3.44
N       4.19       5.29       8.04
N       3.33       4.63       7.19
N       5.19       5.08       6.07
N       4.98       5.50       2.85
N       3.58       4.07      11.15
N       4.52       3.12      11.45
N       8.39       2.86       6.84
N       9.25       3.52       7.69
N       7.39       3.07       8.82
N       7.60       2.65      12.04
O       5.23       6.83      10.90
O       1.03       5.47       8.92
O       2.36       6.88      10.07
O       6.06       0.67      10.31
O       7.35       1.32       3.98
O       1.75       2.68       5.96
O      10.22       1.26       4.81
O       6.52       7.47       4.57
