12

Zn       5.71       3.85       7.00
C       3.26       4.50       8.46
C       7.57       3.60       9.34
N       2.85       3.36       6.50
N       3.70       4.05       7.19
O       6.23       5.72       6.93
C       7.43       6.19       6.98
C       6.87       3.79       4.36
O       5.96       1.91       6.98
O       6.39       3.74       8.83
O       5.80       3.89       5.08
C       7.06       1.21       7.05
