1056

C      23.60      32.60       4.34
C      23.88      31.22       4.28
C      24.33      30.52       5.43
C      24.51      31.23       6.64
C      24.28      32.63       6.70
C      23.82      33.30       5.55
C      22.88      33.22       3.30
C      23.48      33.48       2.05
C      22.72      33.99       0.97
C      21.34      34.25       1.15
C      20.71      33.99       2.40
C      21.49      33.47       3.45
C      23.60      17.89      12.73
C      23.88      18.53      13.95
C      24.33      19.87      13.98
C      24.51      20.57      12.76
C      24.29      19.92      11.52
C      23.82      18.59      11.52
C      22.88      16.67      12.71
C      23.48      15.47      13.12
C      22.72      14.28      13.21
C      21.34      14.30      12.90
C      20.72      15.51      12.50
C      21.50      16.69      12.42
C      23.60      32.51      21.28
C      23.88      33.25      20.11
C      24.33      32.61      18.93
C      24.51      31.20      18.94
C      24.28      30.45      20.12
C      23.82      31.11      21.28
C      22.88      33.10      22.34
C      23.48      34.06      23.18
C      22.72      34.73      24.16
C      21.33      34.45      24.30
C      20.71      33.50      23.45
C      21.49      32.84      22.47
C      11.32      -2.14      35.58
C      11.60      -0.76      35.64
C      12.05      -0.06      34.49
C      12.22      -0.77      33.28
C      12.00      -2.17      33.22
C      11.53      -2.84      34.37
C      10.59      -2.76      36.62
C      11.20      -3.01      37.87
C      10.44      -3.53      38.95
C       9.05      -3.78      38.77
C       8.43      -3.52      37.52
C       9.21      -3.00      36.47
C      11.31      12.57      27.20
C      11.59      11.93      25.97
C      12.05      10.60      25.94
C      12.22       9.89      27.16
C      12.00      10.54      28.40
C      11.53      11.88      28.40
C      10.59      13.79      27.21
C      11.19      15.00      26.80
C      10.43      16.19      26.71
C       9.05      16.16      27.02
C       8.43      14.95      27.42
C       9.21      13.78      27.50
C      11.32      -2.04      18.65
C      11.60      -2.79      19.81
C      12.05      -2.14      20.99
C      12.22      -0.74      20.98
C      12.00       0.02      19.80
C      11.54      -0.65      18.65
C      10.59      -2.64      17.58
C      11.20      -3.59      16.74
C      10.44      -4.27      15.76
C       9.05      -3.99      15.63
C       8.43      -3.04      16.47
C       9.21      -2.38      17.45
C      24.44       7.68      35.57
C      24.14       6.30      35.63
C      23.69       5.62      34.48
C      23.52       6.33      33.27
C      23.75       7.73      33.22
C      24.22       8.39      34.37
C       0.56       8.30      36.64
C      24.49       8.54      37.88
C       0.62       9.05      38.99
C       2.01       9.33      38.85
C       2.68       9.08      37.62
C       1.94       8.56      36.53
C      24.43      -6.95      27.15
C      24.14      -6.31      25.93
C      23.68      -4.97      25.91
C      23.52      -4.28      27.13
C      23.75      -4.93      28.37
C      24.22      -6.26      28.37
C       0.56      -8.19      27.15
C      24.48      -9.37      26.74
C       0.62     -10.60      26.63
C       2.01     -10.61      26.94
C       2.68      -9.42      27.34
C       1.94      -8.22      27.44
C      24.44       7.66      18.69
C      24.14       8.40      19.86
C      23.69       7.75      21.02
C      23.52       6.34      21.02
C      23.75       5.60      19.83
C      24.22       6.26      18.68
C       0.56       8.28      17.62
C      24.49       9.23      16.80
C       0.63       9.93      15.79
C       2.01       9.67      15.62
C       2.68       8.73      16.46
C       1.94       8.05      17.45
C      12.15      22.78       4.35
C      11.85      24.16       4.29
C      11.40      24.85       5.44
C      11.23      24.13       6.65
C      11.46      22.74       6.70
C      11.94      22.07       5.55
C      12.84      22.16       3.27
C      12.20      21.93       2.04
C      12.91      21.41       0.93
C      14.30      21.13       1.07
C      14.96      21.39       2.30
C      14.22      21.90       3.39
C      12.15      37.41      12.77
C      11.86      36.77      13.99
C      11.40      35.44      14.01
C      11.24      34.74      12.79
C      11.47      35.39      11.55
C      11.94      36.72      11.55
C      12.84      38.65      12.76
C      12.20      39.84      13.18
C      12.91      41.06      13.29
C      14.30      41.07      12.98
C      14.96      39.88      12.58
C      14.22      38.68      12.48
C      12.15      22.80      21.23
C      11.85      22.06      20.06
C      11.40      22.72      18.89
C      11.23      24.12      18.90
C      11.46      24.87      20.09
C      11.94      24.20      21.24
C      12.84      22.19      22.30
C      12.20      21.23      23.12
C      12.91      20.53      24.13
C      14.30      20.79      24.29
C      14.96      21.73      23.46
C      14.22      22.41      22.47
C      24.55      -2.01      35.55
C      24.22      -0.64      35.59
C      23.63       0.00      34.48
C      23.34      -0.76      33.32
C      23.70      -2.13      33.25
C      24.32      -2.73      34.36
C       0.69      -2.59      36.63
C       0.07      -2.73      37.88
C       0.80      -3.16      39.01
C       2.19      -3.42      38.88
C       2.82      -3.33      37.61
C       2.06      -2.91      36.50
C      24.55      12.48      27.10
C      24.21      11.84      25.89
C      23.62      10.55      25.89
C      23.34       9.92      27.13
C      23.70      10.55      28.35
C      24.32      11.81      28.32
C       0.69      13.71      27.06
C       0.07      14.86      26.55
C       0.80      16.05      26.36
C       2.19      16.07      26.65
C       2.82      14.93      27.21
C       2.05      13.75      27.40
C      24.55      -2.08      18.77
C      24.22      -2.81      19.94
C      23.63      -2.16      21.05
C      23.34      -0.77      20.97
C      23.70      -0.03      19.82
C      24.33      -0.69      18.74
C       0.69      -2.72      17.73
C       0.07      -3.75      16.98
C       0.80      -4.51      16.05
C       2.19      -4.26      15.88
C       2.82      -3.21      16.60
C       2.06      -2.45      17.52
C      12.27      32.47       4.37
C      11.93      31.10       4.33
C      11.34      30.46       5.44
C      11.06      31.22       6.60
C      11.41      32.59       6.68
C      12.04      33.19       5.56
C      12.97      33.05       3.29
C      12.35      33.19       2.04
C      13.08      33.62       0.91
C      14.47      33.88       1.04
C      15.10      33.79       2.31
C      14.34      33.37       3.43
C      12.27      17.98      12.82
C      11.93      18.63      14.03
C      11.34      19.91      14.03
C      11.06      20.54      12.79
C      11.42      19.91      11.57
C      12.04      18.65      11.60
C      12.97      16.76      12.86
C      12.35      15.60      13.37
C      13.08      14.41      13.56
C      14.47      14.39      13.27
C      15.11      15.53      12.71
C      14.34      16.71      12.51
C      12.27      32.54      21.15
C      11.93      33.27      19.98
C      11.34      32.63      18.87
C      11.06      31.24      18.95
C      11.41      30.49      20.10
C      12.04      31.15      21.18
C      12.97      33.19      22.19
C      12.35      34.21      22.94
C      13.08      34.97      23.87
C      14.47      34.72      24.04
C      15.10      33.67      23.32
C      14.34      32.91      22.40
C      23.35      22.90       4.37
C      23.69      24.27       4.33
C      24.28      24.91       5.45
C      24.56      24.14       6.61
C      24.21      22.77       6.67
C      23.58      22.17       5.56
C      22.68      22.32       3.27
C      23.33      22.21       2.03
C      22.64      21.77       0.87
C      21.26      21.47       0.98
C      20.59      21.55       2.23
C      21.32      21.97       3.37
C      23.35      37.33      12.86
C      23.70      36.68      14.07
C      24.28      35.40      14.06
C      24.57      34.77      12.81
C      24.21      35.40      11.59
C      23.58      36.67      11.64
C      22.68      38.57      12.90
C      23.33      39.70      13.43
C      22.64      40.93      13.63
C      21.26      40.98      13.32
C      20.59      39.86      12.76
C      21.32      38.67      12.55
C      23.35      22.77      21.11
C      23.69      22.05      19.94
C      24.28      22.70      18.84
C      24.56      24.08      18.92
C      24.21      24.82      20.08
C      23.58      24.16      21.15
C      22.68      22.11      22.17
C      23.33      21.08      22.88
C      22.64      20.30      23.84
C      21.26      20.54      24.05
C      20.59      21.58      23.35
C      21.32      22.36      22.42
C      11.07       7.56      35.55
C      11.41       6.19      35.59
C      12.00       5.56      34.47
C      12.28       6.32      33.31
C      11.92       7.69      33.25
C      11.30       8.29      34.36
C      10.40       8.14      36.65
C      11.04       8.25      37.89
C      10.36       8.69      39.05
C       8.97       8.99      38.94
C       8.30       8.90      37.69
C       9.03       8.49      36.55
C      11.07      -6.87      27.06
C      11.41      -6.22      25.85
C      12.00      -4.93      25.86
C      12.28      -4.31      27.10
C      11.92      -4.94      28.33
C      11.30      -6.21      28.28
C      10.39      -8.11      27.02
C      11.04      -9.24      26.49
C      10.36     -10.47      26.29
C       8.97     -10.52      26.60
C       8.30      -9.40      27.15
C       9.03      -8.20      27.37
C      11.07       7.70      18.81
C      11.41       8.42      19.98
C      12.00       7.77      21.08
C      12.28       6.38      21.00
C      11.93       5.64      19.84
C      11.30       6.31      18.77
C      10.40       8.36      17.75
C      11.05       9.38      17.04
C      10.36      10.16      16.08
C       8.98       9.92      15.87
C       8.30       8.88      16.57
C       9.04       8.10      17.50
C       0.37      35.25       9.20
C      24.30      34.72      10.35
C      23.64      33.48      10.19
C      24.33      33.33       7.93
C       0.65      37.44       8.33
C       0.37      20.77       8.00
C      24.30      22.04       7.89
C      23.64      22.52       9.04
C      24.33      20.63      10.30
C       0.66      18.93       6.54
C       0.36      26.97      21.14
C      24.30      26.24      20.10
C      23.64      27.00      19.11
C      24.33      29.04      20.11
C       0.65      26.63      23.47
C      12.65      -4.79      30.72
C      12.01      -4.26      29.57
C      11.35      -3.02      29.73
C      12.05      -2.87      31.99
C      12.94      -6.97      31.58
C      12.65       9.69      31.92
C      12.01       8.43      32.03
C      11.35       7.95      30.88
C      12.05       9.83      29.62
C      12.93      11.53      33.38
C      12.65       3.49      18.78
C      12.02       4.22      19.82
C      11.35       3.46      20.81
C      12.05       1.43      19.81
C      12.94       3.83      16.45
C      23.02      10.36      30.75
C      23.64       9.84      29.59
C      24.31       8.61      29.72
C      23.68       8.44      32.00
C      22.73      12.54      31.65
C      23.02      -4.12      31.89
C      23.64      -2.85      32.02
C      24.32      -2.35      30.88
C      23.68      -4.23      29.59
C      22.72      -5.98      33.32
C      23.02       2.14      18.78
C      23.64       1.39      19.81
C      24.32       2.13      20.81
C      23.68       4.18      19.82
C      22.73       1.83      16.45
C      10.74      20.10       9.17
C      11.35      20.62      10.33
C      12.03      21.85      10.20
C      11.39      22.02       7.92
C      10.44      17.92       8.27
C      10.74      34.58       8.04
C      11.35      33.31       7.90
C      12.03      32.81       9.04
C      11.39      34.69      10.33
C      10.44      36.44       6.60
C      10.74      28.32      21.14
C      11.35      29.07      20.11
C      12.03      28.34      19.11
C      11.39      26.28      20.10
C      10.44      28.63      23.47
C      17.22      35.09       2.01
C      16.52      33.94       2.45
C      17.29      32.86       2.94
C      19.31      34.04       2.52
C      17.04      36.89       0.44
C      17.22      14.63      11.74
C      16.52      15.58      12.52
C      17.29      16.54      13.20
C      19.31      15.60      12.39
C      17.05      12.37      10.96
C      17.22      33.28      24.59
C      16.51      33.48      23.38
C      17.29      33.59      22.20
C      19.31      33.36      23.43
C      17.04      33.74      26.93
C       4.94      -4.63      37.91
C       4.23      -3.48      37.48
C       5.01      -2.40      36.98
C       7.02      -3.57      37.39
C       4.76      -6.43      39.47
C       4.94      15.84      28.18
C       4.23      14.88      27.40
C       5.00      13.92      26.72
C       7.02      14.86      27.53
C       4.76      18.09      28.96
C       4.94      -2.82      15.33
C       4.23      -3.02      16.54
C       5.01      -3.13      17.72
C       7.02      -2.90      16.49
C       4.76      -3.28      12.99
C       6.17      10.18      38.06
C       6.89       9.04      37.59
C       6.11       7.97      37.09
C       4.09       9.13      37.53
C       6.36      11.94      39.66
C       6.17     -10.35      28.07
C       6.88      -9.38      27.32
C       6.11      -8.41      26.64
C       4.09      -9.37      27.42
C       6.36     -12.61      28.80
C       6.17       8.56      15.29
C       6.89       8.73      16.50
C       6.11       8.83      17.68
C       4.09       8.63      16.46
C       6.37       9.06      12.96
C      18.46      20.29       1.86
C      19.17      21.42       2.33
C      18.40      22.49       2.83
C      16.37      21.34       2.39
C      18.65      18.52       0.26
C      18.46      40.81      11.85
C      19.17      39.84      12.60
C      18.40      38.87      13.28
C      16.38      39.83      12.49
C      18.65      43.08      11.12
C      18.46      21.90      24.63
C      19.17      21.73      23.42
C      18.40      21.63      22.24
C      16.37      21.83      23.46
C      18.65      21.40      26.96
C      24.33      10.11      42.43
C      23.31       9.19      42.76
C      22.92       8.27      41.76
C      24.53       9.15      40.25
C      24.15      37.17       0.15
C      24.33      12.39      13.16
C      23.31      13.13      13.80
C      22.92      12.73      15.09
C      24.53      10.97      15.08
C      24.15      11.97      10.87
C      24.33     -14.10      25.82
C      23.31     -13.93      24.86
C      22.92     -12.60      24.57
C      24.53     -11.73      26.09
C      24.15      33.86      27.33
C      12.05      -4.51      40.56
C      11.03      -3.59      40.23
C      10.64      -2.67      41.23
C      12.25      -3.56      42.75
C      11.86      -6.71      39.78
C      12.04      18.08      26.76
C      11.02      17.33      26.13
C      10.64      17.74      24.83
C      12.25      19.49      24.84
C      11.86      18.49      29.05
C      12.05      -5.17      14.10
C      11.03      -5.35      15.06
C      10.64      -6.67      15.36
C      12.25      -7.54      13.83
C      11.87      -3.39      12.59
C      23.65      -4.09      40.53
C       0.15      -3.20      40.27
C       0.50      -2.30      41.29
C      23.34      -3.15      42.70
C      23.82      -6.28      39.73
C      23.64      17.84      26.41
C       0.15      17.16      25.77
C       0.50      17.60      24.48
C      23.34      19.25      24.50
C      23.82      18.24      28.70
C      23.65      -5.36      14.48
C       0.15      -5.58      15.38
C       0.50      -6.91      15.65
C      23.34      -7.71      14.21
C      23.82      -3.57      12.98
C      11.36       9.68      42.46
C      12.43       8.79      42.73
C      12.78       7.89      41.70
C      11.06       8.74      40.29
C      11.54      36.74       0.19
C      11.36      12.63      13.51
C      12.43      13.30      14.15
C      12.78      12.86      15.45
C      11.06      11.22      15.42
C      11.54      12.22      11.22
C      11.36     -13.92      25.44
C      12.43     -13.70      24.54
C      12.78     -12.36      24.27
C      11.06     -11.56      25.71
C      11.54      34.03      26.94
C      23.52      27.08       6.33
C      24.35      26.32       5.47
C       0.60      27.05       4.56
C      24.37      29.11       5.41
C      22.31      27.03       8.40
C      23.52      22.37      16.52
C      24.36      22.00      17.60
C       0.60      20.86      17.43
C      24.37      20.56      15.21
C      22.31      24.19      15.52
C      23.52      33.55      15.50
C      24.36      34.67      15.28
C       0.60      35.10      16.36
C      24.37      33.32      17.72
C      22.31      31.78      14.42
C      11.23       3.38      33.60
C      12.07       4.14      34.45
C      12.88       3.42      35.36
C      12.09       1.35      34.51
C      10.03       3.43      31.52
C      11.23       8.10      23.40
C      12.07       8.46      22.32
C      12.88       9.61      22.49
C      12.09       9.90      24.71
C      10.03       6.27      24.40
C      11.23      -3.09      24.42
C      12.07      -4.21      24.64
C      12.88      -4.63      23.56
C      12.09      -2.86      22.20
C      10.03      -1.31      25.50
C      24.44       2.15      33.60
C      23.58       1.42      34.45
C      22.78       2.16      35.35
C      23.62       4.21      34.50
C       1.10       2.07      31.54
C      24.44      -2.48      23.35
C      23.58      -2.85      22.29
C      22.78      -4.00      22.48
C      23.61      -4.28      24.68
C       1.10      -0.65      24.31
C      24.44       8.72      24.46
C      23.58       9.82      24.67
C      22.78      10.23      23.58
C      23.62       8.47      22.24
C       1.10       6.97      25.57
C      12.16      28.31       6.32
C      11.29      29.04       5.46
C      10.49      28.30       4.57
C      11.33      26.26       5.42
C      13.38      28.39       8.38
C      12.16      32.94      16.57
C      11.29      33.31      17.63
C      10.49      34.46      17.44
C      11.33      34.75      15.24
C      13.38      31.12      15.61
C      12.16      21.75      15.46
C      11.29      20.64      15.25
C      10.49      20.23      16.34
C      11.33      22.00      17.68
C      13.38      23.49      14.35
H      23.64      30.69       3.43
H      21.04      33.23       4.34
H      24.20      30.24       8.24
H      20.13       9.07      42.79
H      23.56      34.29       5.61
H      24.47      33.24       1.91
H      23.65      18.06      14.83
H      21.04      17.58      12.19
H      24.20      22.44      12.82
H      20.13      13.22      13.89
H      23.56      18.14      10.63
H      24.47      15.46      13.39
H      23.64      34.25      20.08
H      21.04      32.19      21.82
H      24.20      30.32      17.28
H      20.12     -13.89      24.74
H      23.56      30.56      22.10
H      24.46      34.30      23.04
H      11.36      -0.23      36.49
H       8.76      -2.76      35.58
H      11.91       0.22      31.68
H       7.84      -3.47      40.20
H      11.27      -3.83      34.31
H      12.18      -2.77      38.01
H      11.36      12.41      25.09
H       8.76      12.89      27.74
H      11.91       8.02      27.10
H       7.84      17.25      26.04
H      11.27      12.32      29.29
H      12.18      15.00      26.53
H      11.36      -3.78      19.84
H       8.76      -1.73      18.10
H      11.91       0.15      22.64
H       7.84      -5.38      15.18
H      11.27      -0.10      17.82
H      12.18      -3.83      16.88
H      24.36       5.78      36.48
H       2.42       8.33      35.65
H      23.82       5.34      31.67
H       3.04       8.91      40.38
H      24.48       9.38      34.32
H      23.49       8.31      37.96
H      24.36      -6.78      25.05
H       2.42      -7.35      27.67
H      23.82      -2.40      27.08
H       3.04     -11.73      25.81
H      24.48      -6.71      29.25
H      23.49      -9.33      26.50
H      24.36       9.40      19.89
H       2.42       7.40      18.08
H      23.82       5.45      22.67
H       3.05      11.21      15.22
H      24.48       5.72      17.85
H      23.49       9.41      16.95
H      12.08      24.69       3.44
H      14.70      22.13       4.27
H      11.54      25.12       8.25
H      15.33      -3.32      42.61
H      12.19      21.08       5.60
H      11.21      22.15       1.96
H      12.08      37.25      14.87
H      14.70      37.81      12.24
H      11.54      32.87      12.84
H      15.33      -7.55      14.11
H      12.19      37.18      10.67
H      11.21      39.80      13.42
H      12.08      21.06      20.03
H      14.70      23.06      21.83
H      11.54      25.01      17.25
H      15.33      19.25      24.70
H      12.19      24.74      22.07
H      11.20      21.05      22.97
H      24.48      -0.08      36.41
H       2.51      -2.78      35.59
H      23.26       0.23      31.69
H       3.41      -2.96      40.25
H       0.08      -3.70      34.30
H      23.65      -2.47      37.99
H      24.48      12.27      25.00
H       2.51      12.90      27.75
H      23.26       8.02      27.08
H       3.41      17.03      25.56
H       0.08      12.25      29.19
H      23.65      14.82      26.28
H      24.48      -3.79      20.01
H       2.51      -1.73      18.08
H      23.26       0.14      22.64
H       3.41      -5.68      15.60
H       0.08      -0.15      17.93
H      23.65      -3.96      17.16
H      12.19      30.55       3.51
H      14.80      33.24       4.33
H      10.98      30.23       8.23
H      15.69       8.55      42.74
H      12.37      34.16       5.62
H      11.36      32.93       1.93
H      12.20      18.19      14.92
H      14.80      17.56      12.17
H      10.98      22.44      12.84
H      15.69      13.43      14.36
H      12.37      18.22      10.73
H      11.36      15.64      13.64
H      12.19      34.26      19.91
H      14.80      32.19      21.84
H      10.98      30.33      17.28
H      15.69     -13.59      24.32
H      12.37      30.62      21.99
H      11.36      34.43      22.76
H      23.44      24.83       3.51
H      20.84      22.09       4.27
H       0.08      25.12       8.24
H      20.23      -2.80      42.58
H      23.26      21.20       5.61
H      24.32      22.47       1.97
H      23.44      37.11      14.96
H      20.84      37.83      12.21
H       0.09      32.87      12.84
H      20.23      -7.78      14.57
H      23.26      37.11      10.77
H      24.32      39.63      13.68
H      23.44      21.06      19.87
H      20.84      23.08      21.87
H       0.09      25.01      17.26
H      20.23      18.97      24.26
H      23.26      24.69      21.97
H      24.32      20.90      22.69
H      11.16       5.63      36.41
H       8.55       8.38      35.65
H      12.37       5.35      31.68
H       7.94       8.39      40.41
H      10.98       9.26      34.31
H      12.04       7.99      37.95
H      11.15      -6.65      24.96
H       8.55      -7.37      27.71
H      12.37      -2.41      27.08
H       7.94     -11.49      25.35
H      10.98      -6.65      29.15
H      12.03      -9.16      26.24
H      11.16       9.41      20.05
H       8.55       7.38      18.05
H      12.37       5.45      22.66
H       7.94      11.49      15.66
H      10.98       5.78      17.95
H      12.04       9.56      17.23
H      23.10      33.06      10.95
H       0.87      37.13       7.31
H       1.22      38.35       8.54
H      24.16      37.66       8.43
H      23.10      23.38       9.02
H       0.87      18.20       7.32
H       1.22      18.66       5.65
H      24.16      18.89       6.30
H      23.10      26.55      18.37
H       0.87      27.67      23.71
H       1.21      26.00      24.15
H      24.15      26.44      23.62
H      10.81      -2.60      28.97
H      13.16      -6.67      32.61
H      13.50      -7.88      31.38
H      11.87      -7.20      31.49
H      10.81       7.08      30.90
H      13.15      12.27      32.60
H      13.50      11.81      34.27
H      11.87      11.57      33.62
H      10.82       3.91      21.55
H      13.16       2.79      16.21
H      13.50       4.47      15.77
H      11.87       4.03      16.30
H       0.28       8.21      28.95
H      22.53      12.22      32.67
H      22.15      13.44      31.46
H      23.78      12.78      31.54
H       0.28      -1.48      30.92
H      22.53      -6.71      32.53
H      22.15      -6.27      34.20
H      23.78      -6.00      33.59
H       0.28       1.66      21.55
H      22.53       2.88      16.21
H      22.15       1.22      15.76
H      23.79       1.61      16.29
H      12.56      22.25      10.97
H      10.25      18.24       7.25
H       9.86      17.02       8.46
H      11.50      17.68       8.38
H      12.56      31.94       9.00
H      10.25      37.17       7.39
H       9.87      36.73       5.72
H      11.50      36.46       6.33
H      12.56      28.80      18.37
H      10.25      27.58      23.71
H       9.86      29.25      24.16
H      11.50      28.85      23.63
H      16.85      31.99       3.24
H      18.01      37.34       0.65
H      16.35      37.68       0.18
H      17.13      11.34      42.66
H      16.85      17.24      13.81
H      18.02      12.32      10.47
H      16.35      11.75      10.41
H      17.13      11.97      11.98
H      16.85      33.77      21.30
H      18.01      33.33      27.22
H      16.35      33.57      27.75
H      17.13     -14.92      26.78
H       4.57      -1.53      36.68
H       5.73      -6.88      39.27
H       4.06      -7.22      39.74
H       4.85      -5.75      40.33
H       4.57      13.22      26.11
H       5.73      18.14      29.45
H       4.06      18.72      29.51
H       4.85      18.49      27.94
H       4.57      -3.31      18.62
H       5.73      -2.87      12.70
H       4.06      -3.11      12.17
H       4.85      -4.36      13.14
H       6.55       7.10      36.78
H       5.38      12.38      39.48
H       7.05      12.74      39.92
H       6.31      11.24      40.50
H       6.55      -7.70      26.05
H       5.38     -12.69      29.27
H       7.05     -13.24      29.36
H       6.31     -13.00      27.78
H       6.55       8.99      18.59
H       5.38       8.69      12.67
H       7.06       8.89      12.14
H       6.31      10.14      13.14
H      18.84      23.36       3.14
H      17.66      18.08       0.44
H      19.34      17.72       0.00
H      18.59      -5.65      42.50
H      18.84      38.16      13.87
H      17.67      43.15      10.65
H      19.34      -6.03      10.56
H      18.59      -6.28      12.14
H      18.84      21.47      21.33
H      17.66      21.77      27.25
H      19.34      21.57      27.78
H      18.59      20.32      26.78
H      22.20       7.56      41.94
H      24.32      12.75      42.24
H       0.01      37.83       0.90
H      23.07      37.09       0.33
H      22.21      13.23      15.61
H      24.32      10.90      10.97
H       0.01      12.29       9.92
H      23.08      12.17      10.84
H      22.20     -12.40      23.87
H      24.32     -15.25      28.21
H       0.00      32.87      27.53
H      23.07      33.74      27.17
H       9.92      -1.97      41.05
H      12.03      -7.15      40.76
H      12.29      -7.37      39.02
H      10.79      -6.63      39.59
H       9.92      17.23      24.31
H      12.03      19.57      28.95
H      12.29      18.17      30.00
H      10.79      18.29      29.08
H       9.92      -6.87      16.06
H      12.04      -4.02      11.71
H      12.29      -2.41      12.39
H      10.79      -3.27      12.75
H       1.25      -1.62      41.17
H      23.60      -6.73      40.70
H      23.42      -6.93      38.96
H       0.34      -6.22      39.60
H       1.25      17.15      23.95
H      23.60      19.31      28.61
H      23.42      17.89      29.65
H       0.34      18.10      28.72
H       1.25      -7.15      16.31
H      23.60      -4.19      12.10
H      23.42      -2.58      12.81
H       0.34      -3.49      13.10
H      13.53       7.21      41.83
H      11.32      12.32      42.29
H      11.14      37.39       0.96
H      12.62      36.68       0.32
H      13.53      13.31      15.97
H      11.32      11.15      11.31
H      11.14      12.57      10.27
H      12.62      12.37      11.20
H      13.53     -12.13      23.62
H      11.31     -15.09      27.82
H      11.13      33.04      27.11
H      12.62      33.95      26.82
H       1.20      26.56       3.89
H      23.23      27.13       8.99
H      21.63      26.37       8.94
H      21.83      28.00       8.30
H       1.20      20.52      18.19
H      23.23      24.65      15.14
H      21.64      24.99      15.83
H      21.83      23.62      14.73
H       1.20      35.92      16.26
H      23.23      31.22      14.22
H      21.63      31.65      13.58
H      21.83      31.38      15.31
H      13.48       3.91      36.03
H      10.94       3.33      30.93
H       9.35       4.10      30.98
H       9.54       2.46      31.62
H      13.48       9.94      21.74
H      10.94       5.82      24.78
H       9.35       5.48      24.09
H       9.54       6.85      25.19
H      13.48      -5.46      23.66
H      10.95      -0.75      25.70
H       9.35      -1.18      26.34
H       9.55      -0.91      24.61
H      22.16       1.68      36.02
H       0.19       2.19      30.94
H       1.77       1.39      31.01
H       1.60       3.04      31.64
H      22.16      -4.34      21.74
H       0.19      -0.20      24.72
H       1.77       0.15      23.99
H       1.60      -1.22      25.10
H      22.16      11.04      23.66
H       0.19       6.39      25.76
H       1.77       6.86      26.42
H       1.60       6.58      24.68
H       9.87      28.78       3.90
H      12.48      28.27       8.98
H      14.05      29.07       8.90
H      13.89      27.43       8.28
H       9.87      34.80      18.18
H      12.48      30.66      15.21
H      14.05      30.32      15.94
H      13.89      31.69      14.83
H       9.88      19.42      16.26
H      12.47      24.07      14.16
H      14.05      23.61      13.50
H      13.88      23.89      15.24
N      23.67      32.83       9.01
N       0.37      34.54       8.05
N      23.67      21.81      10.20
N       0.37      20.13       9.20
N      23.67      28.35      19.14
N       0.37      28.33      21.10
N      11.39      -2.37      30.91
N      12.66      -4.07      31.87
N      11.39       8.65      29.72
N      12.66      10.33      30.72
N      11.39       2.11      20.78
N      12.66       2.13      18.82
N      24.32       7.95      30.90
N      23.05       9.64      31.91
N      24.32      -3.04      29.72
N      23.05      -4.75      30.68
N      24.32       3.48      20.79
N      23.05       3.50      18.83
N      12.03      22.51       9.02
N      10.76      20.82       8.01
N      12.03      33.50      10.20
N      10.77      35.22       9.24
N      12.03      26.98      19.13
N      10.76      26.96      21.09
N      18.64      32.93       2.95
N      18.58      35.09       2.06
N      18.64      16.52      13.13
N      18.59      14.67      11.71
N      18.64      33.54      22.26
N      18.58      33.23      24.57
N       6.36      -2.47      36.97
N       6.30      -4.63      37.85
N       6.36      13.95      26.79
N       6.30      15.79      28.21
N       6.36      -3.08      17.66
N       6.30      -2.77      15.35
N       4.76       8.03      37.09
N       4.81      10.18      38.00
N       4.76      -8.44      26.70
N       4.81     -10.30      28.10
N       4.76       8.79      17.63
N       4.81       8.52      15.32
N      17.05      22.43       2.83
N      17.09      20.29       1.92
N      17.05      38.90      13.22
N      17.10      40.76      11.82
N      17.05      21.67      22.29
N      17.09      21.94      24.60
N      23.54       8.28      40.56
N       0.34      10.05      41.20
N      23.54      11.68      15.68
N       0.34      11.35      13.83
N      23.54     -11.57      25.17
N       0.34     -13.01      26.39
N      11.26      -2.68      42.43
N      12.62      -4.45      41.79
N      11.25      18.78      24.24
N      12.62      19.11      26.09
N      11.26      -7.71      14.75
N      12.63      -6.27      13.53
N      24.38      -2.30      42.46
N      23.00      -4.02      41.72
N      24.38      18.61      23.89
N      23.00      18.84      25.75
N      24.38      -7.92      15.06
N      23.00      -6.42      13.94
N      12.09       7.89      40.53
N      10.71       9.61      41.27
N      12.10      11.85      16.03
N      10.71      11.63      14.17
N      12.09     -11.35      24.86
N      10.71     -12.85      25.98
N       0.59      28.40       4.55
N      23.55      28.43       6.25
N       0.59      20.17      16.26
N      23.56      21.63      15.38
N       0.59      34.42      17.54
N      23.55      32.94      16.71
N      12.87       2.06      35.37
N      11.27       2.03      33.67
N      12.87      10.29      23.67
N      11.27       8.84      24.54
N      12.87      -3.96      22.38
N      11.27      -2.47      23.21
N      22.82       3.52      35.35
N      24.43       3.51      33.67
N      22.81      -4.68      23.66
N      24.43      -3.21      24.49
N      22.81       9.55      22.41
N      24.43       8.09      23.26
N      10.53      26.94       4.57
N      12.14      26.95       6.25
N      10.53      35.14      16.26
N      12.15      33.68      15.43
N      10.53      20.91      17.51
N      12.14      22.37      16.66
O       0.41      30.57       7.74
O      20.61      34.71       0.09
O       0.42      21.85      12.78
O      20.61      13.15      13.03
O       0.41      30.58      17.82
O      20.60      35.14      25.23
O      12.70      -0.11      32.18
O       8.32      -4.24      39.83
O      12.70       8.61      27.14
O       8.32      17.31      26.89
O      12.70      -0.11      22.10
O       8.32      -4.68      14.70
O      23.04       5.68      32.17
O       2.75       9.73      39.93
O      23.04      -3.00      27.12
O       2.75     -11.75      26.75
O      23.04       5.71      22.13
O       2.75      10.41      14.74
O      10.75      24.79       7.75
O      15.03      -4.14      43.07
O      10.76      33.46      12.80
O      15.03      -7.53      13.17
O      10.75      24.75      17.79
O      15.03      20.06      25.18
O      22.62      -0.19      32.30
O       2.90      -3.76      39.99
O      22.62       8.76      27.14
O       2.90      17.20      26.39
O      22.62      -0.18      21.97
O       2.90      -5.06      15.04
O      10.34      30.65       7.62
O      15.18       9.35      43.00
O      10.34      21.70      12.78
O      15.19      13.26      13.53
O      10.34      30.64      17.95
O      15.18     -14.22      24.88
O       0.72      24.70       7.62
O      20.54      -3.67      42.93
O       0.72      33.61      12.80
O      20.54      -7.65      13.65
O       0.72      24.68      17.93
O      20.53      19.70      24.84
O      13.01       5.76      32.30
O       8.25       9.26      40.07
O      13.00      -3.15      27.12
O       8.25     -11.63      26.27
O      13.01       5.78      22.00
O       8.25      10.76      15.08
O       1.06      36.43       9.28
O       1.06      20.25       6.94
O       1.06      26.32      22.12
O      13.35      -5.97      30.64
O      13.34      10.21      32.98
O      13.35       4.15      17.80
O      22.31      11.53      30.70
O      22.31      -4.66      32.93
O      22.31       1.51      17.79
O      10.03      18.93       9.22
O      10.03      35.12       7.00
O      10.02      28.95      22.13
O      16.53      36.20       1.60
O      16.54      13.72      10.97
O      16.53      33.07      25.77
O       4.25      -5.74      38.32
O       4.25      16.75      28.95
O       4.25      -2.61      14.16
O       6.86      11.29      38.47
O       6.85     -11.26      28.83
O       6.86       8.36      14.12
O      19.14      19.17       1.45
O      19.14      41.73      11.09
O      19.14      22.10      25.80
O       0.23      35.89       0.26
O       0.23      12.71      11.92
O       0.23      34.40      26.17
O      12.51      -5.43      39.66
O      12.51      17.75      28.00
O      12.51      -3.93      13.76
O      23.20      -4.99      39.60
O      23.20      17.48      27.65
O      23.21      -4.10      14.17
O      10.92      35.45       0.32
O      10.92      12.98      12.27
O      10.92      34.56      25.75
O      22.58      26.45       7.11
O      22.58      23.36      16.67
O      22.58      33.19      14.56
O      10.30       4.01      32.81
O      10.29       7.10      23.25
O      10.30      -2.72      25.36
O       0.81       1.50      32.83
O       0.81      -1.48      23.18
O       0.81       8.37      25.41
O      13.09      28.96       7.09
O      13.09      31.95      16.75
O      13.09      22.09      14.51
