13

C       7.71       8.84      13.13
C       8.57       9.95      13.22
N       6.44       7.10      13.49
N       6.47       7.25      12.15
N       7.16       8.04      14.09
H       9.63      11.38      12.04
H       8.80      10.57       9.87
C       7.26       8.34      11.88
C       7.63       8.97      10.67
H       7.25       8.61       9.71
H       8.92      10.31      14.19
C       8.96      10.53      12.03
C       8.48      10.05      10.77
