89

Cd       5.10       9.16       0.30
Cd       6.49      12.72       1.86
Cd       7.47      14.36       5.18
Cd       8.52      15.82       8.55
Cd       9.73      19.54      10.09
H       2.19       6.68      -7.94
H       9.44      16.27      11.88
H       3.35      10.82      -6.66
H       3.88      11.11      -4.23
H       4.71       6.92      -3.88
H       4.18       6.61      -6.31
H       6.03       9.38       3.53
H       6.64      11.51       7.17
H       7.24       9.33       7.96
H       6.69       7.23       9.21
H       4.02       6.04       6.10
H       4.50       8.15       4.84
H       6.02      16.27      -2.18
H       5.85      12.09      -1.47
H       4.69      15.67      -4.09
H       4.42      15.17      -6.53
H       6.52      11.47      -6.04
H       6.86      11.97      -3.60
C       2.62       7.48      -8.53
C       8.86      15.35      11.79
C       3.70       8.69      -6.61
C       3.63       9.97      -6.04
C       3.94      10.13      -4.69
C       4.31       9.03      -3.90
C       4.39       7.76      -4.49
C       4.08       7.58      -5.84
C       4.63       9.22      -2.45
C       2.39      10.65       1.49
C       3.06      12.60       2.21
C       9.53      13.38       2.77
C       6.21      10.20       4.23
C       6.53      11.27       6.11
C       5.89       8.86       6.34
C       6.51       8.62       7.57
C       6.22       7.45       8.26
C       5.32       6.51       7.73
C       4.71       6.78       6.50
C       4.98       7.95       5.80
C       5.03       5.22       8.44
C       8.85      18.47       6.14
C       8.32      17.48       4.26
C       4.52       7.00       1.96
C       4.49      15.22       6.64
C       5.07      16.02       8.59
C      11.58      17.21       8.80
C       6.05      15.32      -1.67
C       5.97      13.16      -1.31
C       5.78      13.84      -3.71
C       5.10      14.76      -4.52
C       4.96      14.48      -5.88
C       5.47      13.29      -6.42
C       6.14      12.39      -5.60
C       6.32      12.66      -4.24
C       5.28      12.98      -7.89
N       7.68      13.66      10.99
N       8.35      14.83      10.68
N       3.36       8.51      -7.98
N       3.70      10.70       1.37
N       4.13      11.93       1.82
N       6.51      11.45       3.94
N       6.71      12.12       5.12
N       6.21      10.04       5.60
N       8.20      16.60       5.23
N       8.53      17.22       6.42
N       6.16      15.57       7.99
N       5.79      15.06       6.77
N       6.18      15.15      -0.37
N       6.13      13.78      -0.16
N       5.92      14.10      -2.31
Cl       7.23      10.46       0.63
Cl       5.57      14.81       3.30
Cl       8.93      13.64       7.24
Cl       7.74      18.01       9.79
O       4.83       8.16      -1.75
O       4.67      10.39      -1.96
O       8.73      13.10       1.83
O       9.27      13.96       3.87
O      10.60      21.65       9.59
O       4.29       4.36       7.89
O       3.71       7.29       1.02
O      10.75      16.26       8.78
O      11.37      18.45       9.01
O       5.32      11.79      -8.27
O      10.27      20.04      12.19
