354

C      12.53      25.51      11.45
C      11.89      24.47      10.76
C      12.48      24.27       9.53
C      13.58      25.11       9.40
C      14.34      25.02       8.19
C      13.95      24.13       7.15
C      12.01      23.45       8.49
C      10.75      23.81      11.24
C      10.11      24.32      12.36
C      15.13      25.69      11.23
C      15.82      24.52      11.70
C      17.20      24.56      12.08
C      13.75      25.94      10.65
C       0.00      23.12      15.25
C       1.26      22.57      15.67
C       5.34      21.78      17.12
C       4.58      20.77      17.68
C       3.27      21.22      17.88
C       4.98      19.45      17.95
C       4.01      18.52      18.33
C       2.64      18.88      18.39
C       2.28      20.25      18.19
C       7.29      22.81      16.17
C       6.66      21.67      16.67
C      20.19      22.60      14.25
C      20.42      22.97      12.91
C      19.35      23.35      12.07
C      18.02      23.48      12.56
C      17.77      22.91      13.84
C      18.83      22.42      14.64
C       1.74      17.80      18.22
C      12.74      23.40       7.30
C       0.93      15.61      19.04
C       1.50      16.89      19.28
C       1.48      17.37      16.90
C      14.72      23.80       6.00
C      15.00      24.73       4.97
C      15.57      24.30       3.75
C      18.08      22.67       2.81
C       0.65      15.19      17.72
C       0.96      16.08      16.66
C      15.81      22.93       3.49
C      15.54      22.00       4.52
C      15.03      22.43       5.76
C      19.56       9.61      16.49
C      18.93      10.73      15.91
C      19.52      11.89      16.35
C      20.61      11.59      17.16
C       0.28      12.68      17.68
C      20.98      14.03      17.42
C      19.77      14.26      16.72
C      19.05      13.20      16.17
C      17.79      10.64      15.10
C      17.15       9.41      14.98
C      17.59       8.28      15.71
C      18.85       8.37      16.40
C       1.07       9.71      16.75
C       1.82       9.24      17.82
C       1.07       9.22      18.97
C      20.86       9.62      18.68
C       1.47       8.80      20.26
C       0.50       8.65      21.25
C      20.23       8.87      20.96
C      19.86       9.39      19.67
C       1.75       9.89      15.50
C       3.13       9.55      15.35
C       3.78       8.93      16.45
C       3.15       8.80      17.69
C      20.78      10.09      17.25
C      10.55      -7.33      12.98
C      11.81      -6.78      12.56
C      15.89      -5.98      11.11
C      15.13      -4.98      10.55
C      13.82      -5.44      10.35
C      15.53      -3.66      10.27
C      14.56      -2.73       9.89
C      13.19      -3.10       9.84
C      12.83      -4.46      10.04
C      17.84      25.83      12.06
C      17.21      -5.88      11.56
C       5.49      13.19       0.19
C       4.86      13.13       1.44
C       5.45      12.16       2.23
C       6.55      11.62       1.56
C       7.31      10.62       2.24
C       6.92      10.17       3.54
C       5.71      10.66       4.09
C       4.98      11.66       3.45
C       3.71      13.86       1.77
C       3.08      14.59       0.77
C       3.52      -1.90      27.87
C       4.78      -2.54      27.60
C       8.10      12.92       0.15
C       8.86      -4.19      27.63
C       8.10      -5.17      27.04
C       6.79      -5.12      27.54
C       8.50      -6.07      26.04
C       7.53      -6.86      25.42
C       6.17      -6.73      25.76
C       5.80      -5.88      26.85
C       8.78      13.91       0.93
C      10.17      14.22       0.70
C      10.81      -2.84      28.05
C      10.18      -3.84      27.32
C       6.72      12.30       0.22
C       9.01       6.18      11.74
C       8.38       5.06      12.32
C       8.96       3.90      11.87
C      10.06       4.20      11.07
C      10.83       3.11      10.55
C      10.43       1.76      10.81
C       9.22       1.53      11.51
C       8.50       2.59      12.06
C       7.24       5.15      13.13
C       6.60       6.38      13.25
C       7.04       7.51      12.52
C       8.30       7.42      11.82
C      11.61       6.08      11.48
C      12.37       6.56      10.41
C      11.62       6.57       9.25
C      10.31       6.18       9.55
C      12.02       6.99       7.97
C      11.05       7.14       6.98
C       9.68       6.92       7.27
C       9.32       6.41       8.56
C      12.30       5.90      12.73
C      13.68       6.25      12.88
C      14.33       6.86      11.78
C      13.70       6.99      10.54
C      10.23       5.70      10.98
C       1.98      23.13      16.78
C       1.34      -8.67      17.47
C       1.93      -8.48      18.70
C       3.03      -9.33      18.84
C       3.79      -9.23      20.04
C       3.40      -8.34      21.08
C       2.18      -7.62      20.93
C       1.46      -7.66      19.74
C       0.20      -8.02      16.99
C      20.66      -8.53      15.86
C       4.58      22.95      17.00
C       5.27      -8.73      16.54
C       6.65      -8.77      16.16
C       3.20     -10.15      17.58
C      16.04       2.60      28.04
C      15.41       2.67      26.79
C      16.00       3.63      26.00
C      17.10       4.17      26.67
C      17.86       5.17      25.99
C      17.47       5.62      24.69
C      16.26       5.13      24.14
C      15.53       4.13      24.78
C      14.27       1.93      26.46
C      13.63       1.21      27.47
C      14.07      17.69       0.36
C      15.33      18.33       0.63
C      18.65       2.87      28.08
C      19.41      19.99       0.59
C      18.65      20.98       1.18
C      17.34      20.92       0.69
C      19.05      21.88       2.18
C      16.72      22.53       2.47
C      16.35      21.67       1.38
C      19.33       1.88      27.31
C      20.72       1.58      27.53
C       0.26      18.65       0.17
C      20.73      19.65       0.91
C      17.27       3.50      28.01
C       6.13       8.63      12.57
C       6.35       9.62      13.55
C       5.28      10.16      14.29
C       3.95       9.67      14.16
C       3.70       8.83      13.04
C       4.77       8.39      12.22
C      13.16      17.09       1.31
C      13.39      15.74       1.66
C      12.31      14.82       1.76
C      10.98      15.19       1.40
C      10.73      16.58       1.25
C      11.80      17.51       1.28
C      16.68       7.16      15.66
C      16.90       6.17      14.67
C      15.83       5.63      13.93
C      14.50       6.13      14.07
C      14.25       6.96      15.19
C      15.32       7.41      16.01
C       9.64      -6.82      13.98
C       9.87      -7.18      15.32
C       8.80      -7.55      16.17
C       7.47      -7.68      15.67
C       7.22      -7.12      14.39
C       8.28      -6.62      13.60
C       2.61      -1.29      26.93
C       2.84       0.06      26.58
C       1.77       0.98      26.47
C       0.44       0.61      26.83
C       0.18      -0.78      26.98
C       1.25      -1.71      26.96
C       7.70       9.34       4.40
C       7.96       7.98       4.11
C       8.53       7.13       5.10
C       8.78       7.60       6.41
C       8.52       8.97       6.69
C       8.01       9.81       5.69
C      11.21       0.60      10.51
C      11.48       0.18       9.19
C      12.05      -1.09       8.95
C      12.29      -2.01      10.00
C      12.03      -1.58      11.33
C      11.51      -0.29      11.57
C       4.17      -8.01      22.23
C       4.45      -8.93      23.26
C       5.02      -8.50      24.48
C       5.26      -7.13      24.74
C       4.99      -6.20      23.70
C       4.47      -6.64      22.47
C      18.24       6.46      23.83
C      18.51       7.81      24.12
C      19.08       8.66      23.13
C      19.32       8.19      21.82
C      19.06       6.83      21.53
C      18.55       5.98      22.53
H      15.31      23.63      11.72
H      15.21      25.56       8.10
H      10.32      23.03      10.74
H       9.24      23.86      12.66
H       8.26      22.70      15.84
H       7.18      20.79      16.71
H       5.94      19.14      17.80
H       1.30      20.52      18.17
H       1.61      21.72      15.23
H      19.59      23.79      11.18
H       0.27      23.20      12.60
H      18.62      22.23      15.62
H       5.99      24.79      13.29
H       1.75      17.14      20.24
H      14.78      25.72       5.10
H      12.40      22.78       6.56
H      11.16      22.89       8.58
H       4.30      17.54      18.40
H       0.71      15.00      19.83
H       1.06      18.74      15.67
H      15.82      25.00       3.05
H      19.44      15.21      16.54
H      18.37      23.23       3.62
H       0.78      15.81      15.69
H      14.85      21.73       6.48
H       4.74       8.59      16.39
H       3.66       8.39      18.47
H       2.43       8.52      20.45
H       0.78       8.23      22.14
H      18.88       9.51      19.43
H       1.25      10.31      14.71
H       1.14      12.49      18.20
H      18.20      13.40      15.63
H      19.20       7.56      16.92
H      17.37      11.47      14.66
H      16.29       9.39      14.42
H      18.80      -6.90      12.39
H      17.72      -5.00      11.52
H      16.49      -3.35      10.43
H      14.85      -1.75       9.82
H      11.85      -4.73      10.06
H      12.16      -5.93      13.00
H      11.77      -2.61      27.79
H      10.69      -4.32      26.57
H       9.46      -6.10      25.69
H       7.82      -7.42      24.60
H       4.82      -5.73      27.08
H       8.28      14.38       1.69
H       8.18      10.28       1.82
H       5.37      10.33       5.00
H       4.13      12.02       3.90
H       5.13      -2.58      26.65
H       3.30      13.83       2.70
H       2.21      15.07       1.02
H      15.29       7.20      11.84
H      14.21       7.40       9.75
H      12.98       7.28       7.78
H      11.33       7.57       6.09
H       8.33       6.29       8.80
H      11.80       5.48      13.51
H      11.69       3.30      10.03
H       8.89       0.58      11.69
H       7.66       2.39      12.60
H       8.65       8.23      11.31
H       6.82       4.33      13.56
H       5.74       6.41      13.81
H       4.76      -7.84      16.51
H       4.66      -9.77      20.13
H       1.85      -6.99      21.67
H       0.62      -7.10      19.65
H      20.88      -7.23      17.49
H      19.80      -8.06      15.57
H       1.22      18.42       0.43
H       0.15      20.13       1.65
H      20.01      21.91       2.53
H      15.37      21.53       1.16
H      18.83       1.42      26.55
H      18.73       5.51      26.41
H      15.92       5.46      23.23
H      14.68       3.77      24.33
H      15.68      18.37       1.59
H      13.85       1.96      25.53
H      12.77       0.72      27.21
H       5.52      10.72      15.12
H       7.31       9.78      13.90
H       4.57       7.63      11.56
H       2.48       7.40      13.31
H      16.54      23.85      14.95
H      12.56      13.83       1.81
H      14.34      15.36       1.61
H      11.59      18.47       0.96
H       9.50       0.64      28.34
H      16.07       5.07      13.11
H      17.85       6.01      14.33
H      15.11       8.16      16.67
H      13.03       8.39      14.92
H       9.04      -8.00      17.06
H      10.82      -7.41      15.63
H       8.07      -6.43      12.61
H       2.02       1.97      26.42
H       3.79       0.43      26.62
H       1.04      -2.67      27.28
H      20.05      -1.26      28.35
H      15.13      20.24       3.95
H       8.77       6.17       4.84
H       7.73       7.59       3.19
H       7.83      10.79       5.93
H       8.11       9.35       8.50
H      12.30      -1.35       7.99
H      11.26       0.79       8.40
H      11.34      -0.01      12.54
H      11.61      -2.95      12.56
H       5.28      -9.21      25.18
H       4.23      -9.92      23.13
H       4.29      -5.94      21.74
H       4.58      -4.45      24.28
H      19.33       9.62      23.39
H      18.29       8.20      25.04
H      18.38       5.00      22.29
H      18.66       6.44      19.73
O      16.53      23.03      14.41
O       1.82      18.13      15.82
O       2.47       8.28      12.85
O       9.50      17.02       0.87
O      13.02       7.52      15.37
O       5.98      -7.23      13.82
O      20.05      -1.21      27.36
O      15.88      20.68       4.41
O       8.86       9.53       7.88
O      12.37      -2.33      12.41
O       5.33      -4.89      23.81
O      19.41       6.26      20.34
