42

O       7.68       5.55      21.63
C       9.01       7.89      26.11
H       8.78       7.18      23.46
C       9.71       6.99      29.70
H       9.85       7.95      30.16
C       8.87       6.37      24.16
H       9.07       2.03      26.28
C       8.86       5.08      23.63
H       9.31       2.29      28.68
C       9.94       5.85      30.49
H       9.65      10.55      23.96
H      10.73       9.80      25.20
H      10.26       8.87      23.74
H       7.86       8.85      24.51
C       9.40       6.89      28.33
H       8.22       9.92      25.82
C       9.00       6.58      25.55
C       9.71       4.59      29.96
C       8.91       3.97      24.48
C       9.36       4.45      28.61
C       9.02       4.15      25.86
H       7.95       9.24      29.62
H       8.46      10.93      29.27
H      10.37       9.44      28.75
H       9.77      10.17      27.31
C       9.08       3.03      26.69
H       7.41      10.04      28.10
C       9.23       3.18      28.06
C       8.67       9.09      25.23
C       9.90       9.60      24.49
H       8.84       2.97      24.08
C       9.49       9.44      28.08
C       8.25       9.94      28.81
H       9.87       3.71      30.57
C      10.60       6.02      31.79
O      11.38       5.10      32.24
C       8.59       4.84      22.21
C       9.26       5.60      27.78
O       9.06       3.76      21.73
C       9.09       5.45      26.40
O      10.53       7.19      32.33
C       9.27       8.05      27.50
