26

H      16.83       7.90      12.30
H      18.02       5.72      12.23
H      19.19       6.26      16.34
H      18.02       8.44      16.38
O      22.49       0.61      15.01
O      20.80      -0.24      13.73
O      16.30      10.15      13.25
O      16.57      10.27      15.48
H      19.26       1.41      12.87
H      18.07       3.60      12.86
H      20.96       5.16      15.64
H      22.13       2.96      15.65
C      17.35       8.31      14.34
C      17.35       7.53      13.18
C      18.01       6.31      13.15
C      18.71       5.83      14.28
C      18.71       6.63      15.44
C      18.03       7.84      15.47
C      19.63       2.25      13.46
C      18.97       3.47      13.46
C      19.43       4.54      14.25
C      20.58       4.34      15.04
C      21.25       3.12      15.03
C      20.77       2.06      14.25
C      21.41       0.70      14.33
C      16.69       9.65      14.39
