23

N      17.39      13.16      13.74
N      17.35      14.08      14.77
N      23.77      13.54      14.31
H      21.23      13.91      12.13
H      23.73      13.78      12.26
H      23.64      13.30      16.36
H      21.15      13.51      16.43
H      18.18      11.33      12.08
H      19.34      12.50      11.40
H      19.88      11.34      12.63
H      18.07      16.05      16.36
H      19.16      14.88      17.13
H      19.79      16.00      15.92
C      20.96      13.71      14.27
C      21.72      13.78      13.09
C      23.10      13.71      13.15
C      23.06      13.46      15.46
C      21.67      13.58      15.48
C      19.04      11.98      12.32
C      18.67      12.94      13.40
C      19.50      13.71      14.25
C      18.61      14.40      15.11
C      18.92      15.39      16.18
