18

C       8.45      11.11       6.47
C       7.09      10.88       6.24
C       6.55       9.63       6.51
C       7.36       8.62       7.05
C       8.71       8.84       7.29
C       9.26      10.09       6.98
C       9.02      12.46       6.12
C       5.15       9.32       6.18
C       9.56       7.71       7.84
H       6.47      11.67       5.82
H       6.94       7.64       7.26
H      10.32      10.25       7.13
O      10.28      12.60       6.35
O       8.24      13.34       5.67
O       4.31      10.20       5.79
O       4.72       8.10       6.25
O       8.92       6.71       8.32
O      10.82       7.82       7.75
