100

P      -0.60       3.77       6.30
P      -0.09       9.22      -6.30
P       3.72       7.05       5.28
P      -4.69       6.24      -5.15
H       3.93       9.73       6.87
H      -0.36      13.50      -5.91
H      -0.91      13.70      -7.62
H      -1.92      12.79      -6.44
H       0.90       1.63       6.32
H      -0.07       0.94       3.98
H      -0.87      -0.40       4.83
H       0.88      -0.34       4.86
H       3.54      11.22       4.92
H       2.39       8.87       6.42
H       2.13      11.24       6.07
H       2.06      10.28       4.53
H      -5.37       2.70      -3.10
H      -6.50       2.27      -4.46
H      -4.94       1.47      -4.27
H       0.07       8.80      -3.28
H      -2.78       5.55      -2.97
H       1.78       7.86       3.15
H      -0.61       4.23       3.27
H       1.58       5.63       6.67
H      -3.63       6.49      -1.38
H      -4.13       4.77       2.37
H      -2.09       5.85       3.05
H       2.81       6.95       1.61
H       4.05       8.28       0.07
H       3.40       8.21      -2.30
H       1.33       7.06      -2.92
H       0.85      12.02      -7.50
H      -0.69      11.27      -7.97
H      -2.30      -0.23       6.52
H      -2.99       2.43      -3.01
H      -5.77       4.20      -6.95
H      -2.59      10.50      -5.79
H      -5.83       4.25       0.59
C       2.71      10.63       5.35
C       3.26       9.43       6.03
C      -4.84       3.53      -5.02
C      -5.45       2.43      -4.17
C      -0.72       8.16      -3.64
C      -1.12       8.31      -4.99
C      -2.40       6.44      -3.40
C      -3.05       6.92      -4.55
C       1.45       6.93       3.58
C       2.00       6.57       4.81
C       0.01       4.99       3.71
C       0.25       4.94       5.11
C      -1.34       7.17      -2.79
C      -2.41       7.88      -5.30
C       0.52       6.09       2.92
C       1.27       5.73       5.64
C      -3.10       6.06      -0.56
C      -3.87       5.28       0.31
C      -3.48       5.20       1.63
C      -2.26       5.75       2.01
C      -1.29       6.14       1.05
C      -1.75       6.35      -0.30
C       0.06       6.37       1.46
C       0.94       6.88       0.44
C       0.50       7.03      -0.92
C      -0.86       6.85      -1.32
C       2.28       7.25       0.72
C      -0.15      11.74      -7.14
C       3.07       7.91      -0.21
C       2.70       7.87      -1.54
C       1.49       7.30      -1.89
C      -0.88      13.01      -6.76
C      -0.05       1.17       6.10
C      -0.02       0.29       4.87
C      -5.31       3.38      -6.43
C      -5.13       4.66      -0.14
S      -0.44       0.21       7.49
S      -3.09       3.31      -4.96
S      -3.23       8.64      -6.62
O      -2.13       4.22       6.10
O       1.44       8.78      -6.09
O      -0.68       9.00      -7.75
O      -4.90       6.32      -6.91
O      -0.01      10.95      -5.98
O      -0.01       4.00       7.75
O      -5.74       7.23      -4.63
O      -5.25       4.74      -4.41
O       4.21       6.67       6.91
O       4.76       6.41       4.36
O      -1.06       2.11       5.96
O       4.01       8.74       5.08
O       0.65      -0.77       7.75
O      -0.55       1.20       8.61
O      -1.87      -0.64       7.30
O      -2.67       2.03      -5.61
O      -2.46       4.44      -5.70
O      -2.65       3.29      -3.36
O      -5.19       2.31      -7.01
O      -2.95       7.79      -7.81
O      -4.70       8.76      -6.44
O      -2.62      10.18      -6.73
O      -5.40       4.59      -1.32
