13

N       7.12      -1.23       8.62
N       8.00      -1.62       9.61
N       5.94      -1.65      10.47
H       4.86       0.01       7.84
H       7.67      -2.16      11.65
H       3.89      -0.63       9.17
C       5.90      -1.26       9.16
C       7.26      -1.86      10.69
C       4.65      -0.89       8.43
C       4.13      -2.01       7.50
H       3.18      -1.72       7.03
H       4.86      -2.22       6.70
H       3.97      -2.94       8.05
