13

N      -2.54       7.17       0.15
C      -3.86       7.37      -0.08
C      -1.25       6.41       2.19
C      -2.50       6.77       1.45
C      -0.73       7.52       3.11
H      -4.27       7.68      -1.04
H      -1.45       5.51       2.78
H      -0.49       6.15       1.44
H       0.22       7.24       3.58
H      -1.46       7.73       3.92
H      -0.57       8.46       2.56
N      -3.72       6.74       1.99
N      -4.60       7.13       1.01
