13

N      -3.26       4.18       4.36
N      -3.12       3.32       3.29
N      -2.14       2.39       5.08
C      -2.67       3.60       5.42
C      -2.45       2.27       3.76
C      -2.57       4.25       6.76
C      -1.26       5.02       6.94
H      -2.18       1.41       3.16
H      -2.67       3.48       7.54
H      -3.43       4.92       6.86
H      -1.19       5.44       7.96
H      -0.39       4.35       6.80
H      -1.18       5.84       6.22
