13

H       8.13      -1.33       3.14
H       8.66      -3.35       7.53
H       9.42      -4.80       6.86
H       7.19      -5.31       7.99
H       6.38      -4.24       6.83
H       7.17      -5.74       6.26
N       9.04      -3.25       3.28
C       8.40      -2.18       3.75
N       9.19      -4.10       4.35
C       8.63      -3.50       5.42
N       8.12      -2.29       5.08
C       8.55      -4.13       6.76
C       7.24      -4.90       6.97
