26

Ni      30.73      24.22      13.63
Ni      31.25      26.67      11.75
Ni      32.50      26.85      14.68
Ni      30.20      23.60      10.52
H      30.12      26.72      14.02
H      32.25      24.32      11.64
O      30.94      26.26      13.69
O      30.52      24.14      15.68
O      32.53      25.19      15.90
O      28.72      24.60      13.42
O      31.09      21.95      11.29
O      33.66      25.70      13.50
O      31.25      28.69      11.94
O      31.32      24.63      11.75
O      30.39      22.18      13.49
O      31.00      26.84       9.71
O      29.31      25.34       9.88
O      28.54      23.21      11.63
O      33.31      26.76      11.54
O      32.85      28.54      13.58
C      34.13      26.19      12.39
C      31.43      24.71      16.44
C      31.89      29.22      12.96
C      28.02      24.12      12.41
C      30.00      26.19       9.16
C      30.73      21.43      12.44
