26

Ni      27.13      11.78      14.60
Ni      28.31      13.24      12.09
Ni      29.07      14.52      14.96
Ni      25.98      10.96      11.73
H      26.83      14.28      13.91
H      28.31      10.71      12.61
O      27.61      13.69      13.95
O      27.17      12.11      16.65
O      28.19      14.12      16.77
O      25.12      12.30      14.53
O      25.13       9.93      13.28
O      29.99      12.72      14.84
O      28.90      15.13      11.55
O      27.63      11.42      12.68
O      26.59       9.87      15.02
C      28.06      12.90      17.21
O      28.61      12.58      10.16
C      24.54      12.82      13.46
O      30.27      12.70      12.57
C      25.85       9.24      14.14
O      26.42      11.95       9.96
O      25.11      12.70      12.29
C      29.59      15.83      12.40
O      30.16      15.24      13.42
C      27.63      12.04       9.46
C      30.73      12.44      13.79
