26

O      14.32       1.61      13.80
O      13.75      -0.42      16.00
O      15.90       0.32      16.04
O      11.64       0.32      14.39
O      11.25      -1.64      12.35
O      16.75       0.17      13.48
O      15.30       3.69      11.75
O      13.78      -0.09      11.93
O      12.85      -2.20      13.89
O      14.36       1.82       9.71
O      12.15       1.53       9.97
O      11.44       1.36      12.43
O      16.47       1.06      11.41
O      16.89       3.12      13.28
Ni      13.58      -0.31      13.94
Ni      14.56       1.79      11.77
Ni      16.13       1.75      14.58
Ni      11.96      -0.12      11.18
H      13.71       2.30      14.16
H      14.36      -0.79      11.54
C      17.16       0.32      12.25
C      14.78       0.08      16.66
C      16.14       4.04      12.70
C      10.92       1.05      13.57
C      13.17       1.65       9.19
C      12.00      -2.56      12.95
