17

O       8.28       7.00       1.16
O       5.92       9.74       4.22
H      10.15      11.78       4.41
H       7.97      11.04       3.43
H       9.56       7.03       3.31
H      11.65       7.93       4.32
H       6.26       7.15       1.41
H       5.14       8.47       2.82
C       9.97      10.74       4.15
C       8.76      10.32       3.60
C       9.64       8.09       3.54
C      10.81       8.59       4.09
C       8.57       8.96       3.28
C       7.29       8.46       2.75
C       7.26       7.49       1.73
C       6.05       8.91       3.27
N      10.99       9.89       4.41
