17

H       6.34       4.08       9.90
H       4.15       4.81       8.93
H       5.75       8.82       8.81
H       7.85       7.91       9.82
H       2.45       8.70       6.90
H       1.34       7.42       8.29
C       6.15       5.12       9.65
C       4.94       5.54       9.10
C       5.83       7.76       9.04
C       7.00       7.26       9.59
C       4.75       6.89       8.79
C       3.48       7.40       8.25
C       3.45       8.37       7.23
C       2.23       6.97       8.76
N       7.17       5.96       9.91
O       4.47       8.86       6.65
O       2.08       6.15       9.71
