18

H       2.07      -1.20       2.90
H       6.36      -2.20       3.27
H       6.78      -3.93       6.05
H       2.49      -2.93       5.68
C       4.37      -1.08       1.97
C       4.38      -1.84       3.28
C       3.20      -2.06       4.01
C       5.58      -2.35       3.75
C       4.48      -4.04       6.98
C       4.47      -3.29       5.67
C       5.65      -3.07       4.93
C       3.27      -2.78       5.20
O       3.23      -0.75       1.53
O       2.00      -1.57       3.63
O       5.44      -0.86       1.40
O       5.62      -4.38       7.42
O       6.85      -3.56       5.32
O       3.41      -4.26       7.55
