13

O       6.94       7.48       9.18
O       8.63       6.54       7.94
H       5.35       9.01       7.13
H       4.79       8.55       4.47
O       6.01       6.72       2.38
O       6.79       4.96       3.63
O       7.05       6.53       5.77
C       7.48       7.11       8.07
C       6.74       7.33       6.84
C       5.77       8.26       6.48
C       6.36       6.17       3.50
C       6.27       6.95       4.72
C       5.49       8.03       5.10
