408

Cd      10.26       0.56       3.03
Cd      13.21      15.24       8.60
Cd      10.26      17.24      14.77
Cd      13.21       8.60      13.18
Cd      13.21       5.62      27.40
Cd       7.31      22.81       1.03
Cd       7.31      27.40      22.81
Cd       7.31      13.18      19.83
Cd       7.31      19.83      15.24
Cd      10.26      25.40       0.56
Cd      13.21      19.83      15.24
Cd       7.31       8.60      13.18
Cd      13.21       1.03       5.62
Cd      10.26       3.03      27.87
Cd      13.21      27.40      22.81
Cd      13.21      22.81       1.03
Cd      10.26      27.87      25.40
Cd       7.31       1.03       5.62
Cd      10.26      11.18      13.65
Cd       7.31       5.62      27.40
Cd      10.26      14.77      11.18
Cd      13.21      13.18      19.83
Cd       7.31      15.24       8.60
Cd      10.26      13.65      17.24
H       3.89      21.09      11.88
H       5.85       5.67       1.38
H      16.62       7.33      16.54
H      14.66       8.55      15.59
H      19.15       9.90      16.85
H      16.62      26.09       6.88
H       5.85       1.38      22.76
H       1.36      16.85      18.52
H       5.85      19.88      12.83
H      17.13      10.42      19.48
H       3.38      19.48      18.01
H       5.09      23.14       7.02
H      17.13      18.01       8.94
H      14.66      15.59      19.88
H       3.38      24.63      23.16
H      14.66       5.67       1.38
H       5.85      22.76      27.04
H      15.18       2.56       4.32
H       5.09       7.02       5.29
H      17.13      19.48      18.01
H      15.42      21.40      23.14
H       1.36      24.11      25.79
H      19.15      16.85      18.52
H       3.38      23.16       3.79
H      19.45       6.26      20.47
H      14.66      22.76      27.04
H      15.42      23.14       7.02
H      14.66      19.88      12.83
H       1.06       7.96       6.26
H       3.89      16.54      21.09
H      15.18      24.10       2.56
H       1.36      25.79       4.31
H      15.18      16.77       9.89
H       1.06      20.47      22.17
H       3.89       2.33      21.54
H       1.06      22.17       7.96
H       3.89      21.54      26.09
H      15.18      25.87      24.10
H      19.45      22.17       7.96
H       5.33       9.89      11.65
H      16.62      16.54      21.09
H      15.18      18.54      16.77
H       5.85      12.83       8.55
H      15.42       7.02       5.29
H      19.15      18.52      11.58
H      14.66       1.38      22.76
H       5.85      15.59      19.88
H       5.33      18.54      16.77
H      15.42      21.23       8.93
H      15.42       5.29      21.40
H      19.15      25.79       4.31
H       5.09      21.23       8.93
H      15.18       4.32      25.87
H       5.33      25.87      24.10
H      14.66      27.04       5.67
H       3.38       5.27      24.63
H      16.62       6.88       2.33
H       5.33       4.32      25.87
H       3.89       6.88       2.33
H       5.09      21.40      23.14
H      19.15      11.58       9.90
H       3.38       3.79       5.27
H      19.15      24.11      25.79
H       5.09       7.19      19.50
H       5.85      27.04       5.67
H      15.42       8.93       7.19
H      17.13      23.16       3.79
H      19.45      20.47      22.17
H      16.62      21.54      26.09
H       5.33      16.77       9.89
H       5.33      24.10       2.56
H       1.36       4.31       2.64
H      17.13       3.79       5.27
H      15.18       9.89      11.65
H       5.85       8.55      15.59
H      17.13       5.27      24.63
H      19.15       4.31       2.64
H      19.45       7.96       6.26
H       3.38       8.94      10.42
H      16.62      21.09      11.88
H      15.42       7.19      19.50
H       5.33       2.56       4.32
H      14.66      12.83       8.55
H      16.62       2.33      21.54
H      17.13      24.63      23.16
H       3.38      18.01       8.94
H       5.09       5.29      21.40
H       3.89      26.09       6.88
H      15.42      19.50      21.23
H       3.89       7.33      16.54
H       1.36       9.90      16.85
H       3.89      11.88       7.33
H       3.38      10.42      19.48
H       5.33      11.65      18.54
H       1.36      11.58       9.90
H       5.09       8.93       7.19
H      17.13       8.94      10.42
H       1.06       6.26      20.47
H       1.36       2.64      24.11
H      19.15       2.64      24.11
H       5.09      19.50      21.23
H      16.62      11.88       7.33
H       1.36      18.52      11.58
H      15.18      11.65      18.54
C       3.93      10.02      18.63
C       1.09       5.89       4.23
C       5.02       3.89      24.91
C       5.31      16.45      19.46
C       5.74       4.04       2.80
C      16.59      18.63      18.41
C      18.08      20.41       9.68
C      18.08       6.20       4.53
C       2.43       9.68       8.01
C       3.52      24.56       5.42
C       0.68      19.11      10.97
C      17.64       7.05      19.66
C      19.83      25.18       4.90
C       6.94      11.90      10.86
C       6.94      25.07      26.11
C       1.09      22.53      24.19
C       3.52      23.00      24.56
C       1.09       4.23      22.53
C       5.31      19.46      11.98
C      13.57      26.11       3.35
C      19.83      19.11      10.97
C       4.24       8.46       6.73
C       0.68      25.18       4.90
C      16.59       9.80      10.02
C       5.02      18.10      17.72
C      13.57       3.35       2.31
C      16.59      10.02      18.63
C       4.21       8.28      16.97
C       2.43      18.74      20.41
C      15.20      26.19       5.25
C      16.28       6.73      19.97
C      14.77       2.80      24.38
C       6.94       2.31      25.07
C      13.57      10.86      16.52
C       2.87       7.05      19.66
C       2.87      22.98       7.16
C      16.30      25.66       5.93
C      16.59       4.19       4.42
C      16.99       8.79      18.08
C       0.68      23.52      25.18
C       5.74      10.17      17.02
C       4.24       5.76      20.94
C      19.42       4.23      22.53
C       3.52      18.08      19.63
C       3.93       9.80      10.02
C       6.94      16.52      17.57
C      18.08      18.74      20.41
C      15.20      16.45      19.46
C       4.24      20.94      22.67
C      16.59      18.41       9.80
C      15.49      17.72      10.32
C       5.31      26.19       5.25
C       2.87      21.26      22.98
C      17.64      22.98       7.16
C       2.43       8.01      18.74
C      16.99      10.34       8.79
C       4.21      16.97      20.15
C       0.68       4.90       3.24
C       0.68      17.46      19.11
C      19.83      23.52      25.18
C      16.30       5.93       2.76
C      15.49      10.70      18.10
C       5.74       2.80      24.38
C       5.02       3.51       3.89
C      15.20      19.46      11.98
C       0.68       3.24      23.52
C      19.42      24.19       5.89
C      16.30      16.97      20.15
C       6.94      26.11       3.35
C      16.30      22.49      25.66
C      19.42      18.45      20.10
C       0.68       9.31      17.46
C      19.83       3.24      23.52
C      19.83      17.46      19.11
C       4.21       5.93       2.76
C      16.30       2.76      22.49
C      15.49      24.91      24.53
C      13.57      16.52      17.57
C      14.77      24.38      25.62
C      16.30       8.28      16.97
C       3.93      24.23      24.01
C       2.87       8.77       7.05
C       2.87      19.66      21.37
C      13.57      17.57      11.90
C      16.28      19.97      21.70
C      15.20       5.25       2.23
C      16.99      24.56       5.42
C      16.99      18.08      19.63
C      17.64      19.66      21.37
C      15.20      23.17      26.19
C      19.83       4.90       3.24
C      18.08      22.23      23.90
C      16.99       5.42       3.87
C      14.77       4.04       2.80
C      17.64       8.77       7.05
C       3.52      19.63      10.34
C       5.74      18.25      11.41
C       5.02      24.91      24.53
C      18.08       4.53      22.23
C       3.52       8.79      18.08
C       2.87      21.37       8.77
C      14.77      10.17      17.02
C       6.94      10.86      16.52
C      19.42      22.53      24.19
C      16.28       8.46       6.73
C       3.52       5.42       3.87
C      16.59      24.01       4.19
C       1.09      18.45      20.10
C      16.99       3.87      23.00
C       2.43      20.41       9.68
C      15.20      11.98       8.96
C      14.77      11.41      10.17
C      19.83       9.31      17.46
C       4.24      22.67       7.48
C      15.20       2.23      23.17
C       1.09      20.10       9.98
C       4.24      21.70       8.46
C       4.21      25.66       5.93
C      16.28      21.70       8.46
C       4.24       6.73      19.97
C       5.31       8.96      16.45
C       5.02      24.53       3.51
C       5.02      10.70      18.10
C      19.42       5.89       4.23
C      15.20       8.96      16.45
C      16.30      20.15      11.45
C      17.64       5.45      21.26
C      18.08       9.68       8.01
C       6.94       3.35       2.31
C       2.43       6.20       4.53
C      19.42       9.98       8.32
C      14.77      18.25      11.41
C      14.77      25.62       4.04
C       5.02      17.72      10.32
C       5.31       2.23      23.17
C       5.02      10.32      10.70
C      13.57      25.07      26.11
C      16.28       5.76      20.94
C      19.83      10.97       9.31
C      15.49       3.89      24.91
C       4.21      11.45       8.28
C       5.74      11.41      10.17
C       1.09      24.19       5.89
C       2.43       4.53      22.23
C      17.64       7.16       5.45
C       2.87       7.16       5.45
C      16.28      20.94      22.67
C      16.28      22.67       7.48
C       0.68      10.97       9.31
C       5.74      25.62       4.04
C       5.31      23.17      26.19
C      16.30      11.45       8.28
C       4.24       7.48       5.76
C      16.99      19.63      10.34
C      19.42       8.32      18.45
C       5.74      17.02      18.25
C       2.43      23.90       6.20
C      17.64      21.37       8.77
C      16.28       7.48       5.76
C       4.21      20.15      11.45
C       4.21      22.49      25.66
C       3.93      24.01       4.19
C       1.09       9.98       8.32
C       4.21       2.76      22.49
C      16.59       4.42      24.23
C      15.49      24.53       3.51
C      16.99      23.00      24.56
C      15.49      18.10      17.72
C       4.24      19.97      21.70
C       2.87       5.45      21.26
C      15.49       3.51       3.89
C       3.93      18.41       9.80
C      17.64      21.26      22.98
C      13.57       2.31      25.07
C      16.59      24.23      24.01
C       1.09       8.32      18.45
C      15.49      10.32      10.70
C      18.08      23.90       6.20
C       3.52       3.87      23.00
C       3.52      10.34       8.79
C      13.57      11.90      10.86
C       5.74      24.38      25.62
C      14.77      17.02      18.25
C       3.93      18.63      18.41
C       5.31      11.98       8.96
C       6.94      17.57      11.90
C      19.42      20.10       9.98
C       2.43      22.23      23.90
C      18.08       8.01      18.74
C       5.31       5.25       2.23
C       3.93       4.19       4.42
C       3.93       4.42      24.23
N      11.87       2.83       1.13
N       7.59      10.56      15.38
N      12.94      16.57      11.24
N      11.87      27.29       2.83
N       2.08      20.46      22.18
N      11.89      16.26      12.00
N      11.89       2.05       2.21
N       7.57      26.07      25.46
N       8.64      11.38      15.34
N       0.00       4.82      21.94
N      12.92      10.56      15.38
N       0.00      19.04      20.70
N       7.57       2.97      26.07
N      12.94       2.97      26.07
N       8.63      16.43      16.26
N      18.43       6.24      20.46
N      12.92       1.17      24.77
N       7.59      24.77      27.26
N      12.92      15.38      17.87
N       7.59      27.26       3.66
N       8.64       1.13      25.60
N      12.94      11.86      17.18
N      12.92      13.05      10.56
N       7.57       2.35       2.97
N       0.00      21.94      23.60
N       8.64       2.83       1.13
N       7.57      11.86      17.18
N      11.89      12.00      12.16
N      11.87      11.38      15.34
N       8.63       2.05       2.21
N      12.92       3.66       1.17
N      12.94      25.46       2.35
N      11.87      17.04      13.08
N       0.00       6.49       4.82
N      11.87      25.60      27.29
N      11.89      16.43      16.26
N       8.63      26.38      26.21
N      11.87      15.34      17.04
N      12.94       2.35       2.97
N       7.59      17.87      13.05
N       0.00       9.39       7.73
N       2.08       7.97       6.24
N       7.57      16.57      11.24
N      12.94      26.07      25.46
N       8.63      12.00      12.16
N       8.64      17.04      13.08
N       7.57      25.46       2.35
N      11.89       2.21      26.38
N      11.89      12.16      16.43
N      11.87      13.08      11.38
N       8.64      15.34      17.04
N       7.59       1.17      24.77
N      12.94      11.24      11.86
N       7.59      15.38      17.87
N       2.08      22.18       7.97
N       8.64      27.29       2.83
N      12.94      17.18      16.57
N       7.57      17.18      16.57
N      18.43      22.18       7.97
N      12.92      27.26       3.66
N       7.59      13.05      10.56
N       0.00      20.70       9.39
N       8.63      26.21       2.05
N       2.08       6.24      20.46
N       8.64      25.60      27.29
N       8.63      16.26      12.00
N       8.63       2.21      26.38
N       7.59       3.66       1.17
N       8.64      13.08      11.38
N       0.00      23.60       6.49
N       8.63      12.16      16.43
N      11.89      26.38      26.21
N      11.89      26.21       2.05
N       7.57      11.24      11.86
N      12.92      17.87      13.05
N      18.43      20.46      22.18
N      18.43       7.97       6.24
N      11.87       1.13      25.60
N      12.92      24.77      27.26
N       0.00       7.73      19.04
Cl      10.26       5.52      27.43
Cl      10.26      27.43      22.90
Cl      10.26      19.73      15.21
Cl      10.26       0.99       5.52
Cl      10.26      15.21       8.69
Cl      10.26       8.69      13.22
Cl      10.26      13.22      19.73
Cl      10.26      22.90       0.99
