54

Co       4.36       7.85       3.27
Co       1.78       2.53       9.63
H       0.93       9.42       6.46
H       4.35       0.96      12.68
H       4.59       1.32       6.33
H       1.94       8.10       4.59
H       3.39      10.42       1.87
H       1.33       7.94       1.75
H      -0.14      10.59       4.40
H       2.30       9.17      12.70
H       3.73       4.09       6.44
H       1.55       6.28       0.22
H       1.80       6.64       6.57
H       4.74       2.77       8.31
H       0.80       5.10      11.03
H       4.13       2.62      11.15
H       2.67       5.26       8.50
H       5.09       3.84       0.20
C       0.62      10.56      12.59
C       1.86       9.73       6.00
C       4.97       0.21       0.24
C       4.01       0.50       5.93
C       2.20       1.02       7.60
C       2.43       8.98       4.99
C       2.76       0.21       6.47
C       4.31      10.16       1.36
C       0.82       8.80       1.30
C       4.31      10.37       4.88
C       1.35       9.48       0.22
C       1.34       0.75      11.44
C       3.41       5.24       0.31
C       4.66       4.41       6.90
C       2.17       5.53      12.66
C       1.22       5.83       6.98
C       4.78       6.35       5.31
C       5.22       3.66       7.92
C      -0.03       5.54       6.43
C       1.73       4.83      11.53
C       3.62       3.47      11.59
C       1.72       5.04       8.02
C       4.15       4.16      12.68
C       3.93       6.07       1.45
N       5.03       9.11       1.86
N       3.61       9.29       4.44
N       2.44       3.79      11.04
N       1.03       3.96       8.46
O       0.52       1.58      10.91
O       2.51       0.61      11.02
O       3.00       1.81       8.22
O       1.00       0.90       7.93
O       3.10       6.90       2.00
O       5.10       5.96       1.87
O       0.20       7.14       4.69
O       3.60       6.22       4.97
