13

C       0.77       5.99       7.64
O       1.23       6.96       8.31
O       0.43       4.85       8.09
C       0.60       5.45       3.87
C       0.62       7.51       5.67
C       0.56       6.78       3.46
H       0.64       8.35       6.35
H       0.65       4.10       5.58
C       0.64       6.20       6.15
N       0.56       7.79       4.36
C       0.62       5.14       5.24
H       0.54       7.06       2.41
Cl       0.66       4.20       2.67
