22

O       4.14       5.97      17.52
O       5.22       7.81      20.53
O       3.50      10.00      20.29
Cr       4.38       8.87      18.95
Cr       0.94       8.86      18.70
Cr       2.68       5.86      18.83
O       3.94       5.98      20.33
O       1.18       5.58      20.24
O       2.67       7.86      18.82
O       1.27      10.22      20.25
O       0.26       7.62      20.06
C       2.67      10.42      16.83
C       0.69       6.50      16.70
C       5.10       6.66      17.03
C       2.40      10.37      20.81
C       0.37       6.49      20.64
C       4.37       6.98      21.05
O       5.44       7.80      17.50
O       3.70       9.99      17.48
O       1.49      10.21      17.21
O       0.46       7.61      17.25
O       1.40       5.57      17.21
