17

C       6.09       6.04       2.95
C       5.55       6.52       4.16
C       5.23       5.64       5.18
C       5.46       4.25       5.01
C       5.99       3.76       3.79
C       6.30       4.65       2.78
P       6.59       7.17       1.64
C       5.11       3.30       6.09
O       4.09       3.49       6.78
O       5.90       2.28       6.23
O       5.89       8.53       1.81
O       8.11       7.32       1.88
O       6.29       6.46       0.31
H       5.36       7.59       4.28
H       4.80       5.99       6.11
H       6.14       2.69       3.68
H       6.72       4.29       1.83
