17

O       8.27      15.17      13.62
H       9.39      13.49      15.35
H       9.01      11.47      16.81
H       6.18       9.95      13.93
H       6.53      11.98      12.49
P       7.21       9.21      16.55
C       7.56      10.60      15.46
C       8.49      11.60      15.86
C       8.70      12.71      15.05
C       7.98      12.84      13.84
C       7.07      11.84      13.43
C       6.87      10.73      14.23
C       8.15      14.07      13.02
O       5.68       9.02      16.50
O       7.90       7.95      15.96
O       7.77       9.63      17.91
O       8.12      13.92      11.74
