17

P       7.93      15.34       7.41
O      10.35      11.64       2.27
O       8.55      10.41       2.84
O       8.62      16.70       7.19
O       6.40      15.48       7.24
O       8.28      14.63       8.73
H       9.13      15.74       4.77
H       9.66      14.13       2.92
C       8.40      14.20       6.10
H       7.75      12.46       7.22
C       8.93      14.67       4.88
C       9.23      13.78       3.86
C       8.98      12.40       4.04
C       8.46      11.92       5.26
C       8.16      12.81       6.27
C       9.33      11.44       2.96
H       8.29      10.85       5.37
