332

H      14.45       5.55       0.07
H      14.67       7.82      49.31
H      13.43       4.23      46.32
H      13.63       6.42      45.47
H      11.81       8.45      46.05
H       9.81       9.43      46.91
H      12.08      11.53      49.77
H      14.06      10.53      48.94
H      15.13      11.45      46.54
H      17.06      12.63      47.28
H      18.77       9.02      48.60
H      16.87       7.83      47.83
H      16.15       7.47      45.06
H      13.17      10.45      44.84
H      13.36      10.47      42.48
H      16.36       7.52      42.69
H       0.60      21.15      25.12
H       0.38      18.93      24.26
H       1.62      22.53      21.27
H       1.42      20.33      20.42
H       3.25      18.31      21.00
H       5.24      17.33      21.87
H       2.97      15.23      24.73
H       0.99      16.23      23.90
H      -0.08      15.31      21.50
H      -2.00      14.13      22.24
H      -3.72      17.74      23.55
H      -1.82      18.93      22.78
H      -1.09      19.28      20.01
H       1.89      16.30      19.79
H       1.69      16.27      17.44
H      -1.31      19.23      17.64
H      -0.43      21.11      49.67
H      -0.24      18.83       0.41
H      -2.21      22.25       3.21
H      -2.02      20.04       4.04
H      -3.48      17.84       3.79
H      -5.44      16.83       2.92
H      -3.24      15.46      49.72
H      -1.28      16.41       0.49
H      -0.32      15.07       2.74
H       1.63      13.92       2.08
H       3.66      17.59       1.61
H       1.70      18.75       2.30
H       0.57      19.32       4.67
H      -1.82      15.85       4.69
H      -1.61      15.72       7.05
H       0.78      19.18       7.04
H      15.50       5.65      24.62
H      15.30       7.87      25.46
H      17.25       4.44      28.26
H      17.06       6.65      29.09
H      18.53       8.85      28.83
H      20.49       9.86      27.96
H      18.29      11.31      24.67
H      16.33      10.29      25.54
H      15.37      11.62      27.79
H      13.42      12.78      27.13
H      11.40       9.11      26.65
H      13.36       7.95      27.33
H      14.48       7.38      29.72
H      16.89      10.84      29.73
H      16.67      10.98      32.09
H      14.27       7.53      32.09
H      18.64       6.95      39.43
H      18.89       6.43      37.04
H      15.44       7.51      34.34
H      14.33      10.62      40.29
H      -3.59      19.78      14.38
H      -3.84      20.29      11.99
H      -0.39      19.20       9.28
H       0.72      16.12      15.25
H      -3.81      23.70      47.16
H      -3.73      25.79      45.87
H      14.09       2.20      47.37
H      -1.74      24.37       2.27
H       5.58      16.69      47.48
H       7.77      15.97      46.63
H      10.10      13.02      49.27
H       3.67      13.11       1.31
H      19.54      13.04      47.27
H      18.86       3.06      22.11
H      18.78       0.97      20.83
H       0.96      24.56      22.32
H      16.79       2.33      27.32
H       9.47      10.07      22.43
H       7.28      10.79      21.59
H       4.95      13.74      24.22
H      11.38      13.59      26.36
H      20.28      12.52      21.54
H      22.05      13.70      20.30
H      22.17      11.03      26.85
H      -4.48      13.72      22.22
H      -5.22      14.22      46.59
H      -6.99      13.05      45.36
H      -7.11      15.64       1.82
C      14.88       8.99      42.35
C      13.96       9.83      43.01
C      13.82       9.79      44.41
C      14.57       8.89      45.22
C      15.54       8.11      44.54
C      15.67       8.14      43.13
C      14.44       8.80      46.75
C      15.74       9.51      47.18
C      16.87       8.84      47.73
C      18.01       9.54      48.17
C      18.10      10.94      48.01
C      17.03      11.61      47.39
C      15.89      10.91      46.97
C      13.18       9.46      47.32
C      14.30       7.37      47.27
C      14.43       7.08      48.65
C      14.30       5.77      49.17
C      13.98       4.69      48.32
C      13.73       4.97      46.96
C      13.87       6.28      46.45
C      11.89       9.12      46.82
C      10.71       9.69      47.33
C      10.76      10.63      48.38
C      12.02      10.91      48.96
C      13.19      10.33      48.45
C       0.18      17.75      17.30
C       1.10      16.91      17.97
C       1.23      16.96      19.37
C       0.49      17.87      20.17
C      -0.49      18.64      19.49
C      -0.62      18.61      18.09
C       0.61      17.95      21.70
C      -0.68      17.25      22.13
C      -1.81      17.92      22.68
C      -2.96      17.22      23.12
C      -3.05      15.82      22.96
C      -1.98      15.14      22.35
C      -0.84      15.85      21.92
C       1.87      17.30      22.27
C       0.76      19.39      22.22
C       0.62      19.68      23.61
C       0.75      20.99      24.12
C       1.07      22.07      23.27
C       1.32      21.78      21.91
C       1.18      20.48      21.40
C       3.16      17.64      21.77
C       4.34      17.07      22.28
C       4.29      16.13      23.33
C       3.04      15.85      23.91
C       1.86      16.43      23.41
C      -0.45      17.48       7.28
C      -1.17      16.50       6.56
C      -1.31      16.60       5.16
C      -0.75      17.68       4.42
C       0.07      18.58       5.15
C       0.20      18.50       6.55
C      -0.86      17.77       2.89
C       0.43      17.05       2.48
C       1.65      17.73       2.22
C       2.81      17.05       1.83
C       2.83      15.64       1.74
C       1.66      14.94       2.10
C       0.50      15.63       2.49
C      -2.13      17.14       2.30
C      -0.99      19.21       2.37
C      -0.63      19.54       1.03
C      -0.75      20.85       0.53
C      -1.29      21.88       1.33
C      -1.76      21.55       2.62
C      -1.63      20.23       3.11
C      -3.39      17.31       2.93
C      -4.56      16.71       2.41
C      -4.52      15.97       1.20
C      -3.30      15.89       0.52
C      -2.13      16.49       1.04
C      15.51       9.23      32.33
C      16.23      10.20      31.60
C      16.37      10.10      30.21
C      15.81       9.02      29.47
C      14.99       8.13      30.20
C      14.86       8.21      31.60
C      15.91       8.93      27.94
C      14.63       9.65      27.53
C      13.41       8.96      27.26
C      12.24       9.65      26.87
C      12.22      11.06      26.79
C      13.39      11.76      27.15
C      14.55      11.07      27.54
C      17.18       9.56      27.35
C      16.04       7.49      27.42
C      15.69       7.16      26.08
C      15.81       5.85      25.58
C      16.34       4.81      26.38
C      16.80       5.15      27.67
C      16.68       6.46      28.16
C      18.45       9.39      27.97
C      19.62       9.98      27.45
C      19.58      10.73      26.25
C      18.35      10.81      25.56
C      17.18      10.22      26.09
C      15.26       8.82      35.91
C      16.17       8.30      36.88
C      16.01       8.60      38.26
C      14.94       9.41      38.72
C      14.05       9.92      37.74
C      17.98       7.31      38.74
C      18.12       7.01      37.38
C      14.21       9.63      36.38
C      15.36       8.48      34.57
C      14.73       9.73      40.07
C      -0.21      17.90      10.87
C      -1.12      18.42      11.83
C      -0.96      18.13      13.22
C       0.11      17.32      13.68
C       1.00      16.81      12.70
C      -2.93      19.42      13.69
C      -3.07      19.71      12.32
C       0.85      17.09      11.34
C      -0.31      18.24       9.52
C       0.32      17.00      15.02
C      13.84       1.13      49.10
C      -2.10      26.79      48.57
C      -2.14      25.57      49.32
C      -1.55      25.43       0.51
C      -0.95      26.60       1.03
C      -3.35      24.53      47.53
C      -3.31      25.73      46.80
C      14.41       0.96       0.30
C      13.95       2.29      48.34
C      -1.59      24.27       1.29
C       8.12      12.71      49.70
C       7.44      13.80      49.11
C       6.16      14.22      49.61
C       5.56      13.50       0.62
C       6.26      12.41       1.19
C       6.08      15.91      47.91
C       7.33      15.50      47.43
C       7.50      12.00       0.70
C       9.38      12.33      49.27
C       4.31      13.84       1.11
C      20.84      13.15      48.85
C      22.09      13.44      48.25
C      21.65      14.16       0.81
C      20.65      13.49       0.10
C      19.79      12.60      48.12
C       1.21      25.63      24.05
C       1.83      26.79      23.53
C      17.19       1.18      24.27
C      16.60       1.27      25.56
C      16.00       0.10      26.07
C      18.40       2.23      22.49
C      18.36       1.03      21.75
C       0.64      25.73      25.34
C       1.10      24.46      23.30
C      16.63       2.42      26.34
C       6.93      14.05      24.65
C       7.62      12.96      24.06
C       8.89      12.54      24.56
C       9.49      13.19      25.67
C       8.79      14.28      26.24
C       8.97      10.84      22.87
C       7.71      11.25      22.39
C       7.55      14.70      25.75
C       5.67      14.43      24.23
C      10.75      12.85      26.15
C      22.58      12.63      23.92
C      22.79      12.22      25.27
C      21.18      12.74      21.98
C      22.18      13.41      21.27
C      21.86      11.48      26.02
C      -4.74      14.15      23.07
C      -5.79      13.61      23.80
C      -7.53      14.12      48.98
C      -7.73      14.47       0.23
C      -6.12      14.01      47.03
C      -7.13      13.34      46.33
C      -6.80      15.20       0.98
C      -7.04      13.31      23.20
C      -6.60      12.54      25.85
C      -5.60      13.21      25.14
S      12.13      11.08      36.55
S       2.92      15.64      11.51
S      15.62       1.44       2.49
S       6.98      10.46       2.65
S      19.67      13.95       2.40
S      -0.57      25.26      27.53
S       8.08      16.23      27.70
S      -4.62      12.75      27.44
N      13.89       3.47      48.86
N       9.62      11.15      48.83
N      15.01       8.92      41.03
N      19.15      11.56      48.53
N       1.16      23.28      23.81
N       5.43      15.61      23.79
N       0.04      17.82      15.98
N      -4.10      15.19      23.49
N      -1.34      23.11       0.80
N      -0.35      17.34       8.60
N       3.96      15.07       1.31
N      16.40       3.59      25.85
N      20.62      11.36      25.70
N      15.40       9.37      33.65
N      11.10      11.63      26.35
N      16.94       8.08      39.13
N      17.22       7.52      36.50
N      12.97      10.69      37.95
N      13.24      10.19      35.65
N      -1.89      18.65      14.08
N      -2.17      19.20      11.45
N       2.08      16.04      12.91
N       1.81      16.53      10.61
N      -2.77      24.50      48.75
N      -2.69      26.80      47.34
N      -0.34      26.73       2.21
N      15.06       1.92       0.98
N       5.55      15.26      48.97
N       7.96      14.47      48.04
N       5.88      11.67       2.23
N       7.99      10.97       1.41
N      22.34      13.08      46.96
N      21.24      14.45       2.05
N      19.55      13.33       0.84
N      17.82       2.25      23.71
N       2.42      26.78      22.30
N       0.07      26.79      27.26
N      -0.01      24.77      26.02
N       9.50      11.50      23.93
N       7.09      12.29      23.00
N       9.18      15.03      27.28
N       7.06      15.73      26.45
N      21.42      12.37      23.26
N      -5.56      15.34       0.66
N      -4.50      13.37      25.88
N      -6.36      14.37      48.32
N      -7.29      13.67      21.91
N      -6.19      12.25      27.10
