60

Cu       6.24       2.50       4.22
Cu       6.23      12.09       6.34
H       2.46       3.75       6.32
H       5.15       4.82       2.73
H       5.22       6.60       2.85
H       3.98       5.66       3.74
H       3.08       5.70       8.14
H       8.08       7.37       7.57
H       4.04       6.38       6.81
H       7.76      10.84       4.24
H       5.18       9.75       7.86
H       5.21       7.97       7.70
H       3.98       8.95       6.84
H       3.08       8.88       2.42
H       2.77       7.22       2.98
H       4.04       8.20       3.75
H       5.11       3.34       6.88
H       5.14      11.39       9.01
H       2.56       8.60       0.09
H       9.28      12.62       9.50
H       5.74       5.68       8.17
H       5.43       5.66       9.93
H       6.70       4.63       9.23
H       5.10      11.24       3.69
H       5.19       3.21       1.52
H       7.86       5.97      10.46
H       3.99       1.99       1.09
H       5.73       8.90       2.40
H       5.42       8.91       0.64
H       6.69       9.95       1.34
C       6.55       6.56       5.36
C       7.36       5.86       6.28
C       5.97       5.54       4.54
C       5.03       5.67       3.40
C       3.03       6.35       7.26
C       6.55       8.03       5.20
C       7.35       8.73       4.29
C       5.96       9.04       6.02
C       5.04       8.91       7.17
C       3.02       8.23       3.30
C       3.89       3.31       9.85
C       4.70       3.96       8.90
C       5.96      13.34       9.14
C       5.02      12.30       9.62
C       5.68       5.05       9.06
C       3.89      11.27       0.72
C       4.70      10.62       1.67
C       0.66       1.24       1.42
C       5.04       2.29       0.94
C       5.67       9.53       1.51
Br       8.94      12.09       6.34
Br       3.64       2.50       4.22
N       6.39       4.32       4.93
N       7.19       4.54       6.01
N       6.38      10.26       5.63
N       7.19      10.05       4.55
N       6.38      13.34       7.86
N       4.54       3.30       7.72
N       1.08       1.25       2.71
N       4.53      11.29       2.84
