28

C       4.98      15.38       2.21
C       3.77      14.95       1.46
C      -4.18      12.75      -3.58
C       2.55      15.62       1.66
C       3.84      13.89       0.54
C       1.42      15.25       0.93
C       2.72      13.51      -0.18
C       1.50      14.20      -0.01
H       2.51      16.43       2.38
H       4.80      13.39       0.40
H       0.48      15.77       1.07
H       2.77      12.69      -0.89
C       0.35      13.84      -0.76
C      -0.66      13.56      -1.38
C      -1.84      13.27      -2.11
C      -3.09      13.73      -1.64
C      -1.78      12.53      -3.32
H      -3.13      14.28      -0.71
C      -4.25      13.47      -2.37
H      -5.21      13.81      -2.02
H      -0.82      12.17      -3.68
C      -2.94      12.28      -4.04
H      -2.89      11.70      -4.96
C      -5.42      12.51      -4.35
O       6.10      14.92       1.81
O       4.82      16.19       3.18
O      -5.34      11.94      -5.51
O      -6.56      12.84      -3.87
