28

C      -5.44       8.45       7.67
C      -6.89       8.32       7.42
C      -7.63       9.39       6.90
C      -7.53       7.09       7.67
C      -8.98       9.25       6.62
C      -8.88       6.93       7.37
C      -9.62       8.01       6.83
C     -10.99       7.85       6.52
C     -12.18       7.70       6.28
C     -13.57       7.56       6.05
C     -14.30       6.52       6.68
C     -14.25       8.47       5.22
C     -15.67       6.42       6.50
C     -15.62       8.37       5.03
C     -16.34       7.34       5.67
C     -17.82       7.25       5.50
O      -4.80       7.48       8.23
O      -4.80       9.49       7.26
O     -18.44       8.08       4.73
O     -18.48       6.37       6.16
H      -7.11      10.34       6.72
H      -6.95       6.27       8.08
H      -9.56      10.08       6.22
H      -9.38       5.98       7.53
H     -13.77       5.82       7.33
H     -13.69       9.27       4.74
H     -16.25       5.65       6.99
H     -16.16       9.07       4.40
