28

H      17.39      -0.98       7.08
C      18.49      -1.94       5.51
C      18.38      -1.29       6.75
C      17.28      -2.22       4.68
C      19.50      -1.07       7.53
C      19.76      -2.36       5.06
H      19.83      -2.87       4.10
C      20.89      -2.11       5.82
H      19.41      -0.59       8.50
C      20.78      -1.47       7.08
H      21.87      -2.42       5.47
C      21.93      -1.20       7.85
C      22.93      -0.93       8.50
C      24.11      -0.56       9.19
C      24.05      -0.00      10.50
C      25.37      -0.71       8.57
O      17.43      -2.95       3.64
O      16.17      -1.72       5.07
C      25.21       0.40      11.14
C      26.53      -0.32       9.23
C      26.46       0.25      10.51
C      27.71       0.67      11.18
O      28.85       0.44      10.65
O      27.64       1.26      12.33
H      23.08       0.11      10.99
H      25.42      -1.14       7.57
H      25.16       0.83      12.13
H      27.50      -0.42       8.76
