28

H      -5.01      -2.07      16.70
O      -3.38      -3.91      17.26
H      -5.68       0.29      16.20
O      -1.47      -3.17      18.15
H      -1.16      -0.72      18.03
H      -1.80       1.65      17.49
H      -3.29       5.77      17.30
H      -6.44       4.43      14.67
H      -4.03       8.14      16.97
H      -7.15       6.81      14.34
O      -7.07       9.29      14.69
O      -5.52       9.95      16.15
C      -2.62      -2.93      17.63
C      -3.04      -1.53      17.38
C      -4.32      -1.25      16.87
C      -2.14      -0.48      17.62
C      -4.69       0.06      16.59
C      -2.50       0.83      17.33
C      -3.78       1.12      16.80
C      -4.14       2.45      16.48
C      -4.44       3.61      16.24
C      -4.82       4.95      16.01
C      -4.13       6.00      16.65
C      -5.91       5.25      15.16
C      -4.54       7.32      16.47
C      -6.31       6.57      14.98
C      -5.63       7.61      15.63
C      -6.08       9.01      15.47
