1024

H       7.89      18.03      51.11
H       7.62      14.42      48.99
H       8.81      14.39      53.02
H       5.38      17.44      49.79
H       5.11      17.89      45.61
H       8.65      16.45      47.35
H       6.98      16.42      44.40
H       7.75      12.38      50.17
H       9.56      16.68      53.92
H       3.37      18.31      48.81
H      11.98      20.30      22.93
H      12.27      23.92      20.82
H      11.08      23.94      24.85
H      14.49      20.90      21.60
H      14.76      20.45      17.43
H      11.22      21.89      19.17
H      12.88      21.94      16.23
H      12.18      25.96      22.03
H      10.31      21.65      25.73
H      16.50      20.03      20.62
H      30.79      36.83       8.83
H      34.43      36.48       6.78
H      34.42      37.63      10.82
H      31.38      34.30       7.45
H      31.04      34.15       3.26
H      32.45      37.63       5.13
H      32.74      36.19       2.27
H      36.44      36.43       8.07
H      32.13      38.44      11.68
H      30.58      32.31       6.40
H      28.40       1.52      37.01
H      24.77       1.82      34.93
H      24.77       0.67      38.97
H      27.81       4.03      35.63
H      28.17       4.21      31.44
H      26.77       0.71      33.29
H      26.53       2.21      30.40
H      22.74       1.76      36.15
H      27.06      39.22      39.85
H      28.58       6.03      34.60
H      12.75      17.93      33.31
H      11.69      14.65      35.71
H      11.26      14.43      31.53
H      14.75      16.84      34.95
H      14.78      17.99      39.00
H      11.13      17.16      37.06
H      12.50      18.77      39.89
H      10.79      12.66      34.70
H      12.87      16.35      30.41
H      16.79      16.86      36.19
H       7.12      20.41       5.14
H       8.17      23.69       7.54
H       8.61      23.92       3.36
H       5.12      21.50       6.78
H       5.09      20.34      10.82
H       8.73      21.19       8.89
H       7.36      19.57      11.72
H       9.06      25.68       6.53
H       7.03      22.02       2.22
H       3.08      21.46       8.01
H      28.35      36.10      19.11
H      25.08      36.96      21.61
H      24.74      37.46      17.44
H      27.63      34.05      20.72
H      28.94      34.11      24.72
H      27.45      37.62      22.93
H      29.35      36.42      25.68
H      23.03      37.74      20.67
H      26.61      36.09      16.17
H      28.79      32.14      21.70
H      30.85       2.24      47.27
H      34.11       1.37      49.77
H      34.46       0.88      45.60
H      31.56       4.28      48.89
H      30.24       4.22      52.88
H      31.75       0.71      51.09
H      29.84       1.90      53.83
H      36.17       0.60      48.84
H      32.58       2.25      44.33
H      30.38       6.19      49.87
H      31.62      20.38       5.51
H      31.92      24.03       7.58
H      30.78      24.01       3.54
H      34.13      20.98       6.89
H      34.30      20.62      11.08
H      30.80      22.03       9.22
H      32.28      22.29      12.10
H      31.91      26.05       6.32
H      30.00      21.72       2.66
H      36.12      20.18       7.93
H      27.58      17.96      33.69
H      27.28      14.32      35.76
H      28.43      14.33      31.72
H      25.07      17.36      35.06
H      24.89      17.71      39.25
H      28.39      16.32      37.41
H      26.88      16.08      40.30
H      27.30      12.30      34.50
H      29.20      16.62      30.85
H      23.07      18.13      36.09
H       8.72       1.66      47.83
H       5.12       1.43      50.00
H       5.23       0.15      45.99
H       8.00       4.01      49.17
H       8.39       4.33      53.35
H       7.17       0.71      51.62
H       7.01       2.39      54.56
H       3.24       0.24      48.99
H       7.56      39.09      45.07
H       8.58       6.09      50.13
H      11.15      36.67      19.66
H      14.74      36.90      21.83
H      14.64      38.17      17.83
H      11.86      34.32      21.01
H      11.45      34.01      25.19
H      12.70      37.62      23.45
H      12.85      35.95      26.39
H      16.63      38.08      20.83
H      12.32      38.56      16.89
H      11.24      32.24      21.97
H      26.86      20.42      23.42
H      27.73      23.68      20.93
H      28.21      24.02      25.10
H      24.81      21.13      21.80
H      24.88      19.83      17.80
H      28.39      21.33      19.60
H      27.19      19.43      16.85
H      28.50      25.74      21.86
H      26.84      22.15      26.36
H      22.91      19.96      20.82
H      32.34      17.91      51.59
H      31.47      14.65      49.10
H      30.98      14.31      53.27
H      34.38      17.21      49.98
H      34.32      18.51      45.98
H      30.81      17.00      47.77
H      32.01      18.90      45.02
H      30.68      12.60      50.03
H      32.35      16.18      54.53
H      36.28      18.39      49.00
H      11.10       2.36      37.49
H      14.42       1.46      35.08
H      14.69       1.08      39.26
H      11.85       4.38      35.87
H      10.61       4.28      31.86
H      12.07       0.78      33.70
H      10.22       1.98      30.91
H      16.48       0.83      36.06
H      12.70       2.58      40.39
H      10.68       6.27      34.86
H       8.78      35.99       9.32
H       5.46      36.85       6.90
H       5.18      37.23      11.09
H       8.04      33.96       7.70
H       9.28      34.06       3.69
H       7.80      37.56       5.53
H       9.66      36.37       2.74
H       3.38      37.41       7.88
H       7.16      35.77      12.23
H       9.21      32.07       6.69
H       9.57      15.49      40.87
H       9.82      21.52      45.75
H       9.23      19.88      46.16
H       7.48      22.19      45.17
H       7.58      21.59      46.84
H       6.91      20.55      45.56
H      10.28      22.86      12.70
H      10.04      16.84      17.59
H      10.61      18.48      17.99
H      12.38      16.17      17.06
H      12.26      16.79      18.72
H      12.95      17.81      17.44
H      33.38      38.71      54.99
H      27.13      38.30       3.20
H      28.78      37.85       3.69
H      26.65      35.92       2.64
H      27.17      36.08       4.33
H      28.30      35.47       3.10
H      25.82      38.98      26.81
H      32.07       0.04      31.37
H      30.43       0.51      31.86
H      32.55       2.40      30.72
H      32.05       2.30      32.42
H      30.90       2.86      31.19
H      29.74      22.96      15.71
H      30.12      16.73      11.13
H      30.59      18.37      10.65
H      32.49      16.23      11.74
H      32.36      16.76      10.05
H      32.95      17.89      11.29
H      29.44      15.38      43.89
H      29.08      21.62      39.32
H      28.59      19.97      38.83
H      26.72      22.11      39.98
H      26.82      21.60      38.28
H      26.25      20.46      39.51
H       6.17      39.02       1.71
H      12.30      39.26      53.32
H      10.65       0.45      52.88
H      12.84       2.29      53.95
H      12.28       2.19      52.27
H      11.19       2.79      53.53
H      13.70      38.65      29.88
H       7.56      38.41      25.16
H       9.21      37.89      24.72
H       7.01      36.06      25.80
H       7.57      36.15      24.11
H       8.66      35.55      25.38
H      29.23      35.13      12.66
H      29.46       1.81      17.56
H      28.89       0.17      17.97
H      27.12       2.47      17.01
H      27.24       1.86      18.67
H      26.56       0.83      17.40
H      29.96       3.21      40.82
H      29.71      36.55      45.75
H      30.28      38.19      46.15
H      32.06      35.88      45.24
H      31.92      36.51      46.89
H      32.61      37.52      45.61
H      13.67      18.86      26.81
H       7.59      19.03      31.62
H       9.23      18.50      32.06
H       6.96      16.65      31.18
H       7.57      16.85      32.84
H       8.61      16.14      31.59
H       6.21      19.50      54.97
H      12.27      19.32       3.46
H      10.63      19.87       3.89
H      12.90      21.68       2.93
H      12.31      21.53       4.60
H      11.26      22.21       3.34
H      10.07       3.32      43.94
H      10.47      36.44      39.32
H      10.93      38.10      38.84
H      12.84      35.97      39.92
H      12.71      36.50      38.23
H      13.29      37.63      39.47
H       9.79      35.01      15.77
H       9.39       1.90      11.16
H       8.93       0.25      10.68
H       7.03       2.37      11.82
H       7.14       1.86      10.12
H       6.58       0.71      11.35
H      25.89      19.52      29.87
H      31.87      19.28      24.95
H      30.23      19.85      24.55
H      32.55      21.63      25.47
H      31.92      21.50      23.81
H      30.90      22.19      25.09
H      33.31      18.82       1.70
H      27.32      19.04      53.12
H      28.96      18.48      52.72
H      26.65      16.70      53.64
H      27.27      16.83      51.99
H      28.29      16.14      53.27
H       6.97       8.20      50.65
H      12.39      12.45      54.29
H      10.80      13.10      53.84
H      13.33      13.25      52.12
H      12.61      14.59      53.04
H      11.74      13.88      51.66
H      12.91      30.15      22.50
H       7.50      25.87      26.13
H       9.11      25.24      25.68
H       6.57      25.02      23.98
H       7.33      23.71      24.91
H       8.18      24.41      23.52
H       1.30      35.77       8.52
H      36.36       1.95      11.99
H      35.75       0.33      11.58
H      35.44       2.83       9.85
H      34.17       2.07      10.82
H      34.86       1.21       9.42
H      18.57       2.51      36.61
H      22.82      36.39      40.22
H      23.46      37.98      39.76
H      23.61      35.45      38.05
H      24.95      36.17      38.96
H      24.24      37.04      37.59
H      12.18       8.38      34.83
H       7.82      11.13      32.31
H       7.25      11.13      30.62
H       7.90      13.61      32.30
H       6.27      13.02      31.90
H       7.34      13.63      30.61
H       7.70      29.97       6.66
H      12.06      27.23       4.14
H      12.62      27.21       2.44
H      11.99      24.75       4.15
H      13.61      25.34       3.74
H      12.54      24.72       2.46
H      18.73      36.56      20.78
H      21.55       1.61      18.29
H      21.52       2.19      16.60
H      24.03       1.48      18.23
H      23.45       3.12      17.86
H      24.02       2.07      16.55
H       1.14       1.76      48.94
H      37.64      36.72      46.44
H      37.66      36.15      44.76
H      35.16      36.86      46.38
H      35.72      35.22      46.01
H      35.16      36.28      44.70
H      32.55      30.24       5.91
H      27.15      25.93       2.30
H      28.74      25.30       2.78
H      26.20      25.16       4.48
H      26.94      23.81       3.58
H      27.80      24.54       4.95
H      26.65       8.11      34.08
H      32.04      12.42      30.47
H      30.44      13.04      30.93
H      32.98      13.25      32.62
H      32.22      14.57      31.71
H      31.37      13.85      33.10
H      27.32      30.03      21.76
H      31.69      27.21      24.23
H      32.28      27.24      25.91
H      31.57      24.73      24.31
H      33.21      25.30      24.66
H      32.16      24.74      25.98
H      31.85       8.30      49.92
H      27.49      11.09      52.45
H      26.94      11.09      54.14
H      27.62      13.58      52.48
H      25.99      13.01      52.88
H      27.06      13.59      54.16
H      20.99      16.21      36.60
H      16.69      21.59      40.25
H      16.07      19.99      39.78
H      15.85      22.53      38.09
H      14.54      21.77      39.01
H      15.25      20.93      37.62
H      38.20      22.12       8.41
H       3.16      16.73      12.06
H       3.80      18.32      11.59
H       3.95      15.79       9.89
H       5.29      16.52      10.80
H       4.58      17.38       9.42
H      38.41      16.95      48.96
H       1.89      21.28      46.43
H       1.86      21.87      44.74
H       4.37      21.15      46.36
H       3.80      22.80      45.99
H       4.36      21.74      44.68
H      20.79      21.40      20.77
H      17.97      17.06      18.26
H      18.00      16.47      16.57
H      15.50      17.20      18.18
H      16.06      15.55      17.82
H      15.50      16.61      16.51
C       7.75      16.33      49.87
C       8.01      17.02      51.08
C       8.44      16.32      52.24
C       8.56      14.91      52.17
C       8.26      14.19      50.99
C       7.88      14.93      49.84
C       7.15      16.97      48.74
C       5.83      17.45      48.86
C       5.05      17.79      47.72
C       5.66      17.68      46.45
C       6.99      17.23      46.29
C       7.72      16.87      47.45
C       7.50      17.00      45.03
C       8.23      12.80      50.93
C       8.74      16.97      53.42
C       3.70      18.08      47.89
C      12.13      22.01      21.69
C      11.86      21.32      22.90
C      11.44      22.02      24.06
C      11.33      23.43      24.00
C      11.63      24.15      22.82
C      12.01      23.42      21.67
C      12.72      21.37      20.56
C      14.05      20.89      20.68
C      14.82      20.55      19.54
C      14.21      20.67      18.27
C      12.88      21.12      18.12
C      12.15      21.48      19.27
C      12.37      21.35      16.85
C      11.67      25.54      22.77
C      11.12      21.36      25.24
C      16.17      20.27      19.71
C      32.51      36.65       7.62
C      31.81      36.92       8.82
C      32.49      37.32      10.00
C      33.91      37.40       9.96
C      34.64      37.09       8.79
C      33.92      36.74       7.63
C      31.87      36.10       6.47
C      31.39      34.77       6.54
C      31.07      34.03       5.37
C      31.22      34.67       4.12
C      31.68      36.01       4.02
C      32.02      36.70       5.20
C      31.96      36.55       2.78
C      36.03      37.01       8.77
C      31.83      37.63      11.17
C      30.80      32.67       5.50
C      26.69       1.67      35.78
C      27.39       1.41      36.99
C      26.70       1.01      38.16
C      25.28       0.91      38.11
C      24.56       1.20      36.94
C      25.28       1.56      35.78
C      27.32       2.24      34.64
C      27.80       3.56      34.72
C      28.12       4.31      33.56
C      27.98       3.68      32.29
C      27.53       2.34      32.19
C      27.19       1.64      33.36
C      27.26       1.81      30.94
C      23.16       1.25      36.90
C      27.36       0.70      39.34
C      28.39       5.67      33.69
C      12.19      16.42      34.69
C      12.32      17.00      33.40
C      11.94      16.29      32.24
C      11.47      14.97      32.37
C      11.35      14.35      33.64
C      11.69      15.11      34.79
C      12.84      16.99      35.82
C      14.24      17.10      35.81
C      14.98      17.46      36.96
C      14.26      17.76      38.14
C      12.85      17.66      38.20
C      12.15      17.26      37.03
C      12.19      17.97      39.38
C      11.04      13.00      33.80
C      12.20      16.81      30.98
C      16.37      17.40      36.92
C       7.67      21.92       6.52
C       7.55      21.34       5.23
C       7.92      22.05       4.07
C       8.39      23.38       4.20
C       8.51      24.00       5.47
C       8.17      23.24       6.62
C       7.03      21.34       7.65
C       5.62      21.24       7.63
C       4.89      20.87       8.79
C       5.61      20.58       9.97
C       7.02      20.68      10.02
C       7.72      21.08       8.86
C       7.67      20.37      11.21
C       8.82      25.35       5.63
C       7.67      21.54       2.81
C       3.50      20.93       8.74
C      26.85      36.54      20.53
C      27.40      36.47      19.23
C      26.65      36.83      18.09
C      25.31      37.25      18.27
C      24.72      37.33      19.55
C      25.51      36.99      20.67
C      27.50      35.94      21.65
C      27.83      34.57      21.59
C      28.34      33.88      22.71
C      28.56      34.60      23.90
C      28.24      35.97      24.00
C      27.69      36.63      22.87
C      28.51      36.64      25.19
C      23.36      37.59      19.74
C      27.14      36.63      16.81
C      28.57      32.51      22.60
C      32.35       1.79      48.69
C      31.80       1.86      47.39
C      32.55       1.51      46.25
C      33.89       1.09      46.43
C      34.48       1.01      47.71
C      33.68       1.35      48.83
C      31.70       2.39      49.81
C      31.36       3.76      49.75
C      30.85       4.45      50.87
C      30.63       3.73      52.07
C      30.95       2.35      52.17
C      31.50       1.70      51.03
C      30.69       1.68      53.35
C      35.83       0.74      47.91
C      32.05       1.70      44.97
C      30.61       5.82      50.76
C      31.77      22.10       6.73
C      31.51      21.40       5.53
C      31.11      22.09       4.35
C      31.01      23.50       4.39
C      31.30      24.23       5.57
C      31.67      23.51       6.73
C      32.33      21.47       7.88
C      33.66      20.99       7.80
C      34.40      20.67       8.97
C      33.77      20.81      10.23
C      32.43      21.27      10.33
C      31.73      21.61       9.15
C      31.90      21.54      11.58
C      31.36      25.62       5.60
C      30.80      21.42       3.17
C      35.76      20.39       8.84
C      27.43      16.24      34.91
C      27.69      16.94      33.71
C      28.09      16.26      32.54
C      28.19      14.84      32.57
C      27.90      14.11      33.75
C      27.54      14.83      34.91
C      26.87      16.88      36.06
C      25.54      17.35      35.98
C      24.79      17.67      37.14
C      25.42      17.53      38.40
C      26.76      17.08      38.51
C      27.46      16.74      37.33
C      27.29      16.81      39.76
C      27.85      12.72      33.78
C      28.40      16.92      31.35
C      23.43      17.94      37.00
C       7.02       1.58      49.09
C       7.72       1.41      47.87
C       7.09       0.86      46.73
C       5.71       0.53      46.82
C       4.98       0.73      48.01
C       5.65       1.24      49.14
C       7.61       2.23      50.22
C       8.02       3.58      50.10
C       8.31       4.37      51.24
C       8.22       3.77      52.52
C       7.84       2.42      52.67
C       7.52       1.66      51.52
C       7.62       1.90      53.94
C       3.61       0.49      48.10
C       7.77       0.61      45.55
C       8.53       5.74      51.06
C      12.84      36.75      20.92
C      12.14      36.92      19.70
C      12.79      37.46      18.56
C      14.16      37.79      18.65
C      14.89      37.59      19.84
C      14.21      37.08      20.97
C      12.26      36.10      22.05
C      11.84      34.76      21.94
C      11.54      33.96      23.07
C      11.63      34.57      24.35
C      12.02      35.92      24.50
C      12.34      36.67      23.35
C      12.24      36.43      25.77
C      16.26      37.83      19.94
C      12.11      37.71      17.38
C      11.31      32.60      22.90
C      27.31      21.92      22.00
C      27.23      21.36      23.30
C      27.59      22.12      24.44
C      28.01      23.46      24.27
C      28.09      24.05      22.98
C      27.75      23.25      21.86
C      26.71      21.27      20.88
C      25.34      20.93      20.94
C      24.64      20.42      19.82
C      25.37      20.21      18.62
C      26.74      20.54      18.52
C      27.40      21.08      19.65
C      27.42      20.27      17.33
C      28.35      25.40      22.79
C      27.39      21.62      25.72
C      23.28      20.19      19.92
C      31.89      16.41      50.17
C      31.96      16.97      51.47
C      31.60      16.21      52.61
C      31.19      14.87      52.44
C      31.11      14.28      51.15
C      31.44      15.08      50.03
C      32.49      17.07      49.05
C      33.86      17.40      49.11
C      34.55      17.91      47.99
C      33.83      18.12      46.80
C      32.45      17.80      46.69
C      31.80      17.25      47.83
C      31.78      18.06      45.50
C      30.84      12.93      50.96
C      31.80      16.71      53.89
C      35.92      18.16      48.10
C      12.63       1.89      36.11
C      12.05       1.98      37.40
C      12.79       1.66      38.56
C      14.13       1.25      38.42
C      14.75       1.14      37.15
C      13.97       1.45      36.00
C      12.00       2.48      34.97
C      11.67       3.85      35.01
C      11.18       4.53      33.88
C      10.98       3.80      32.68
C      11.30       2.42      32.60
C      11.83       1.78      33.75
C      11.05       1.74      31.42
C      16.11       0.91      36.99
C      12.27       1.90      39.82
C      10.94       5.90      33.97
C       7.25      36.45       7.94
C       7.83      36.36       9.23
C       7.08      36.67      10.39
C       5.73      37.06      10.25
C       5.12      37.17       8.97
C       5.90      36.87       7.83
C       7.88      35.86       6.80
C       8.22      34.49       6.84
C       8.71      33.81       5.71
C       8.90      34.54       4.51
C       8.58      35.92       4.43
C       8.05      36.56       5.58
C       8.83      36.60       3.24
C       3.75      37.39       8.81
C       7.60      36.44      11.65
C       8.96      32.45       5.80
C       9.21      17.53      43.45
C       9.72      16.33      41.44
C      10.60      17.34      41.03
C      10.08      18.57      43.05
C      10.28      19.72      43.80
C       9.07      20.75      45.51
C       7.67      21.31      45.79
C      10.67      20.81      15.27
C      10.15      22.01      13.26
C       9.27      20.99      12.85
C       9.80      19.76      14.86
C       9.61      18.61      15.61
C      10.79      17.61      17.35
C      12.19      17.05      17.66
C      31.25      38.09       1.10
C      32.50      38.75      55.51
C      31.41       0.17      55.03
C      30.14      38.83       0.63
C      28.93      38.88       1.31
C      27.96      37.61       3.01
C      27.49      36.17       3.29
C      27.93       0.23      29.29
C      26.70      38.92      27.34
C      27.78      38.16      26.87
C      29.04      38.80      28.83
C      30.24      38.72      29.52
C      31.24       0.72      31.16
C      31.72       2.17      31.38
C      30.33      20.84      13.24
C      29.69      22.08      15.19
C      28.93      21.00      15.66
C      29.58      19.73      13.70
C      29.51      18.53      13.01
C      30.81      17.55      11.34
C      32.25      17.08      11.09
C      28.88      17.48      41.40
C      29.50      16.25      43.36
C      30.27      17.33      43.83
C      29.64      18.59      41.86
C      29.72      19.79      41.17
C      28.39      20.79      39.53
C      26.95      21.27      39.31
C       8.23       0.23      55.52
C       7.03      38.94       1.16
C       8.10      38.14       1.60
C       9.33      38.76      55.95
C      10.51      38.67      55.23
C      11.49       0.64      53.56
C      11.98       2.07      53.31
C      11.63      38.11      27.35
C      12.84      38.72      29.33
C      11.77       0.20      29.77
C      10.54      38.90      27.78
C       9.35      39.00      27.07
C       8.37      37.71      25.40
C       7.87      36.27      25.16
C      28.86      37.16      15.25
C      29.37      35.97      13.23
C      30.25      36.99      12.82
C      29.73      38.21      14.84
C      29.92       0.03      15.60
C      28.72       1.04      17.33
C      27.32       1.59      17.62
C      30.34       1.17      43.41
C      29.82       2.37      41.39
C      28.95       1.34      40.98
C      29.47       0.13      43.00
C      29.28      38.30      43.75
C      30.45      37.32      45.51
C      31.86      36.77      45.84
C      11.59      18.43      29.35
C      12.82      18.97      27.36
C      11.78      19.81      26.91
C      10.52      19.26      28.91
C       9.35      19.42      29.63
C       8.37      18.29      31.42
C       7.84      16.89      31.78
C       8.27      19.90       1.19
C       7.06      19.38      55.52
C       8.09      18.53      55.09
C       9.33      19.05       0.76
C      10.49      18.87       1.50
C      11.49      20.06       3.24
C      12.03      21.47       3.55
C      10.66       1.22      41.44
C      10.03       2.45      43.41
C       9.27       1.35      43.87
C       9.92       0.11      41.90
C       9.85      38.24      41.21
C      11.15      37.27      39.53
C      12.59      36.81      39.27
C       9.22      37.10      13.27
C       9.85      35.88      15.24
C      10.61      36.97      15.70
C       9.97      38.21      13.72
C      10.05       0.08      13.02
C       8.72       1.07      11.38
C       7.27       1.53      11.15
C      27.92      19.91      27.29
C      26.73      19.38      29.30
C      27.76      18.51      29.71
C      28.97      19.04      27.69
C      30.12      18.85      26.94
C      31.11      20.03      25.19
C      31.66      21.43      24.87
C      31.27      18.43      55.46
C      32.47      18.95       1.13
C      31.44      19.83       1.54
C      30.22      19.30      55.86
C      29.07      19.48      55.11
C      28.09      18.30      53.36
C      27.54      16.90      53.04
C       8.77      10.69      51.86
C       7.71       8.65      51.18
C       8.63       7.90      51.94
C       9.69       9.95      52.65
C      10.70      10.56      53.39
C      11.72      12.65      53.45
C      12.39      13.66      52.50
C      11.10      27.64      23.69
C      12.16      29.69      23.02
C      11.23      30.43      23.78
C      10.17      28.38      24.47
C       9.16      27.78      25.21
C       8.18      25.67      25.29
C       7.52      24.63      24.37
C      38.14      37.64       9.63
C       0.85      36.55       9.01
C       1.60      37.51       9.71
C      38.88      38.60      10.37
C      38.28       0.33      11.05
C      36.15       1.26      11.17
C      35.08       1.89      10.25
C      21.06       0.69      37.81
C      19.02       1.75      37.14
C      18.27       0.83      37.89
C      20.32      39.09      38.59
C      20.91      38.07      39.32
C      23.01      37.06      39.38
C      24.02      36.38      38.43
C      11.09      10.82      32.90
C      11.70       8.81      34.04
C      11.11       8.03      33.02
C      10.51      10.05      31.86
C       9.85      10.58      30.77
C       7.87      11.66      31.35
C       7.31      13.08      31.55
C       8.78      27.52       4.73
C       8.17      29.54       5.87
C       8.77      30.31       4.85
C       9.36      28.29       3.69
C      10.02      27.76       2.59
C      12.00      26.69       3.19
C      12.57      25.28       3.40
C      21.18      37.67      18.86
C      19.17      37.05      19.99
C      18.39      37.65      18.98
C      20.41      38.26      17.82
C      20.93      38.93      16.73
C      22.06       1.55      17.32
C      23.49       2.09      17.50
C      38.02       0.66      47.02
C       0.70       1.28      48.15
C       1.48       0.67      47.14
C      38.79       0.07      45.98
C      38.26      38.73      44.89
C      37.13      36.78      45.47
C      35.70      36.25      45.65
C      30.76      27.73       4.71
C      31.80      29.78       5.38
C      30.88      30.52       4.61
C      29.83      28.46       3.92
C      28.82      27.85       3.18
C      27.82      25.75       3.15
C      27.14      24.75       4.11
C      28.45      10.62      32.89
C      27.40       8.57      33.56
C      28.33       7.83      32.80
C      29.39       9.88      32.11
C      30.40      10.49      31.39
C      31.37      12.61      31.31
C      32.03      13.64      32.25
C      28.43      27.58      23.68
C      27.80      29.60      22.55
C      28.42      30.37      23.56
C      29.02      28.35      24.71
C      29.70      27.83      25.80
C      31.64      26.70      25.20
C      32.18      25.27      25.03
C      30.77      10.74      51.85
C      31.37       8.73      50.71
C      30.77       7.96      51.72
C      30.18       9.98      52.89
C      29.52      10.50      53.98
C      27.56      11.62      53.41
C      27.02      13.04      53.22
C      18.48      18.00      37.80
C      20.53      16.96      37.13
C      21.27      17.88      37.89
C      19.22      18.93      38.58
C      18.61      19.94      39.32
C      16.50      20.92      39.40
C      15.47      21.58      38.47
C       1.38      20.34       9.63
C      38.66      21.38       8.95
C      37.92      20.47       9.72
C       0.65      19.42      10.43
C       1.26      18.41      11.17
C       3.36      17.40      11.22
C       4.36      16.73      10.27
C       1.52      18.05      47.02
C      38.84      17.43      48.16
C      38.06      18.02      47.15
C       0.74      18.62      45.97
C       1.26      19.28      44.88
C       2.39      21.23      45.46
C       3.83      21.76      45.63
C      18.35      20.30      18.83
C      20.36      20.92      19.98
C      21.14      20.33      18.96
C      19.13      19.72      17.79
C      18.61      19.05      16.70
C      17.47      17.11      17.28
C      16.03      16.58      17.46
N       9.07      16.45      42.63
N      10.73      18.42      41.86
N       8.57      17.58      44.62
N      11.27      17.22      39.88
N      10.80      21.89      14.45
N       9.14      19.92      13.67
N      11.30      20.76      16.44
N       8.59      21.12      11.71
N      32.38      38.09       0.34
N      30.28       0.17      55.79
N      31.20      37.45       2.27
N      31.51       0.85      53.88
N      26.81       0.25      28.52
N      28.90      38.14      27.64
N      27.98       0.86      30.46
N      27.68      37.48      25.72
N      30.35      21.97      14.01
N      28.92      19.88      14.89
N      30.97      20.80      12.07
N      28.25      21.10      16.80
N      28.85      16.36      42.18
N      30.30      18.45      43.05
N      28.24      17.53      40.23
N      30.95      17.23      44.97
N       7.13       0.28      56.32
N       9.20      38.10       0.79
N       8.26       0.86      54.35
N       8.01      37.46       2.74
N      12.74      38.06      28.15
N      10.67       0.24      28.97
N      11.60      37.48      26.18
N      11.87       0.88      30.91
N      28.72      36.09      14.42
N      30.38      38.06      13.65
N      28.23      37.20      16.42
N      30.92      36.87      11.68
N      30.47       2.25      42.58
N      28.82       0.27      41.81
N      30.97       1.14      44.58
N      28.27       1.46      39.84
N      12.69      18.33      28.55
N      10.68      19.91      27.72
N      11.53      17.80      30.53
N      11.90      20.48      25.77
N       7.18      20.01       0.38
N       9.18      18.41      55.91
N       8.32      20.52       2.37
N       7.97      17.86      53.94
N      10.68       2.34      42.22
N       9.26       0.24      43.09
N      11.29       1.19      40.27
N       8.59       1.45      45.02
N       9.20      35.98      14.05
N      10.63      38.08      14.91
N       8.59      37.13      12.09
N      11.28      36.88      16.85
N      26.85      20.03      28.12
N      28.83      18.38      28.88
N      27.96      20.53      26.11
N      27.64      17.83      30.86
N      32.35      18.30      56.28
N      30.37      19.95       0.71
N      31.24      17.80      54.28
N      31.56      20.51       2.68
N       7.82      10.00      51.18
N       9.56       8.59      52.66
N       8.77      12.03      51.81
N       8.56       6.58      52.03
N      12.05      28.34      23.01
N      10.29      29.74      24.48
N      11.10      26.31      23.63
N      11.30      31.75      23.87
N      38.83      36.65       9.00
N       0.92      38.48      10.37
N      36.80      37.66       9.57
N       2.92      37.44       9.79
N      20.37       1.65      37.13
N      18.95      39.22      38.59
N      22.39       0.68      37.76
N      16.95       0.90      37.97
N      11.68      10.16      33.94
N      10.56       8.69      31.97
N      11.20      12.14      32.85
N      11.17       6.71      33.00
N       8.20      28.19       5.77
N       9.32      29.65       3.80
N       8.66      26.20       4.68
N       8.72      31.64       4.83
N      20.52      37.07      19.88
N      19.05      38.22      17.93
N      22.50      37.55      18.79
N      17.07      37.60      18.96
N      38.68       1.26      48.05
N       0.82       0.11      46.10
N      36.70       0.78      46.95
N       2.81       0.72      47.12
N      31.71      28.43       5.39
N      29.95      29.82       3.91
N      30.76      26.39       4.77
N      30.96      31.84       4.53
N      27.50       9.91      33.57
N      29.27       8.52      32.10
N      28.45      11.95      32.95
N      28.25       6.51      32.72
N      27.82      28.25      22.66
N      28.98      29.71      24.60
N      28.31      26.26      23.75
N      28.37      31.70      23.58
N      31.36      10.08      50.82
N      30.22       8.62      52.77
N      30.89      12.07      51.92
N      30.82       6.63      51.74
N      19.18      17.06      37.12
N      20.58      18.81      38.59
N      17.15      18.01      37.75
N      22.59      17.80      37.97
N       0.68      21.29       8.94
N      38.61      19.54      10.43
N       2.72      20.34       9.58
N      36.60      20.55       9.80
N       0.86      17.46      48.05
N      38.71      18.57      46.09
N       2.84      17.93      46.95
N      36.73      17.96      47.13
N      19.01      20.89      19.86
N      20.49      19.77      17.91
N      17.03      20.41      18.77
N      22.47      20.38      18.95
O      11.24      20.43      43.52
O       9.16      20.38      44.11
O       8.68      17.87      15.31
O      10.72      17.96      15.96
O      28.13       0.43       0.99
O      28.37      37.71       1.63
O      31.02      37.83      29.22
O      30.81       0.58      29.79
O      28.64      17.73      13.33
O      30.69      17.97      12.72
O      30.62      20.56      41.46
O      28.54      20.36      40.90
O      11.30      37.77      55.52
O      11.10       0.51      54.94
O       8.57       0.57      27.36
O       8.76      37.84      26.78
O      30.87       0.75      15.32
O      28.80       0.68      15.93
O      28.35      37.56      43.46
O      30.40      37.65      44.11
O       8.60      20.33      29.30
O       8.73      18.30      30.02
O      11.22      17.94       1.19
O      11.12      20.00       1.84
O       8.99      37.43      41.52
O      11.03      37.68      40.91
O      10.94       0.86      13.32
O       8.86       0.64      12.75
O      30.87      17.92      27.23
O      30.77      19.97      26.59
O      28.33      20.41      55.40
O      28.43      18.36      54.76
O      11.30       9.86      54.21
O      11.45      11.44      52.72
O       8.52      28.47      25.99
O       8.42      26.87      24.55
O      38.99       0.99      11.81
O      37.35       1.02      10.40
O      20.22      37.47      40.13
O      21.80      37.33      38.65
O      10.39      10.41      29.68
O       9.23      11.76      30.88
O       9.47      27.93       1.52
O      10.64      26.58       2.73
O      20.74      38.41      15.64
O      22.13       0.20      16.84
O      38.46      39.25      43.80
O      37.06      38.14      44.99
O      28.22      28.53       2.37
O      28.07      26.97       3.86
O      31.04       9.80      30.60
O      31.14      11.39      32.05
O      29.16      28.03      26.88
O      30.29      26.63      25.70
O      30.06      10.30      55.06
O      28.92      11.69      53.87
O      19.30      20.58      40.11
O      17.71      20.68      38.66
O       0.57      17.82      11.99
O       2.13      17.66      10.50
O       1.06      18.76      43.79
O       2.46      19.87      44.97
O      18.82      19.57      15.61
O      17.41      18.47      16.79
