876

H       2.15      46.94      33.77
H       2.15      44.56      33.78
H      67.54      46.96      36.43
H      67.55      44.57      36.46
H      67.08      42.62      35.06
H      67.08      40.23      35.08
H       2.64      42.61      35.19
H       2.64      40.23      35.17
H       0.64      39.55      32.45
H       0.66      37.77      30.64
H       0.44      35.89      34.26
H       0.64      34.22      35.90
H       0.54      39.54      37.83
H       0.54      37.73      39.61
H      67.03      35.22      40.22
H      67.00      35.20      42.61
H       2.57      34.81      40.28
H       2.54      34.75      42.67
H       0.31      32.35      39.52
H       0.29      30.57      37.72
H       0.55      32.38      30.55
H       0.57      30.57      32.32
H       2.49      29.85      35.68
H       2.48      27.46      35.64
H      67.13      29.89      34.37
H      67.12      27.50      34.32
H      68.29      25.62      32.98
H      68.34      23.23      32.88
H       1.40      23.10      36.72
H       1.35      25.49      36.84
H      67.16      35.63      29.89
H      67.17      35.66      27.50
H       1.64      33.33      25.57
H       1.68      33.36      23.19
H      68.18      36.98      23.19
H      68.16      36.97      25.57
H       2.61      34.61      27.51
H       2.59      34.58      29.90
H       2.16      36.12      44.64
H       2.12      36.09      47.03
H      67.29      33.79      44.56
H      67.23      33.82      46.95
H      33.35       1.69      46.94
H      33.33       1.65      44.56
H      36.97      68.18      46.96
H      36.97      68.16      44.57
H      35.66      67.17      42.64
H      35.65      67.16      40.25
H      34.62       2.61      42.62
H      34.61       2.59      40.23
H      32.44       0.53      39.55
H      30.64       0.55      37.78
H      34.26       0.52      35.89
H      35.90       0.52      34.22
H      37.83       0.61      39.54
H      39.61       0.59      37.73
H      40.23      67.05      35.20
H      42.61      67.01      35.18
H      40.28       2.59      34.84
H      42.67       2.56      34.77
H      39.52       0.48      32.34
H      37.72       0.48      30.57
H      30.55       0.43      32.38
H      32.33       0.42      30.57
H      34.82       2.57      29.86
H      34.76       2.54      27.47
H      35.22      67.03      29.91
H      35.21      67.00      27.53
H      33.80      67.30      25.58
H      33.82      67.23      23.19
H      36.09       2.12      23.11
H      36.12       2.17      25.49
H      29.89      67.14      35.63
H      27.50      67.15      35.65
H      25.57       1.62      33.32
H      23.19       1.66      33.35
H      23.18      68.16      36.97
H      25.57      68.14      36.96
H      27.51       2.58      34.60
H      29.90       2.57      34.57
H      44.65       2.17      36.13
H      47.03       2.12      36.10
H      44.56      67.32      33.78
H      46.94      67.25      33.80
H      46.94      33.35       1.69
H      44.56      33.33       1.65
H      46.96      36.97      68.18
H      44.57      36.97      68.16
H      42.64      35.66      67.17
H      40.25      35.65      67.16
H      42.62      34.62       2.61
H      40.23      34.61       2.59
H      39.55      32.44       0.53
H      37.78      30.63       0.55
H      35.89      34.26       0.52
H      34.22      35.90       0.52
H      39.54      37.83       0.62
H      37.73      39.61       0.59
H      35.20      40.22      67.05
H      35.18      42.61      67.01
H      34.83      40.28       2.59
H      34.77      42.67       2.56
H      32.34      39.52       0.48
H      30.57      37.72       0.48
H      32.38      30.55       0.43
H      30.57      32.33       0.42
H      29.86      34.82       2.57
H      27.47      34.76       2.54
H      29.91      35.22      67.03
H      27.53      35.21      67.00
H      25.58      33.80      67.30
H      23.19      33.82      67.23
H      23.11      36.09       2.12
H      25.49      36.12       2.17
H      35.63      29.89      67.14
H      35.65      27.50      67.15
H      33.32      25.57       1.62
H      33.35      23.19       1.67
H      36.97      23.18      68.16
H      36.96      25.57      68.14
H      34.60      27.51       2.58
H      34.57      29.90       2.57
H      36.13      44.65       2.17
H      36.10      47.03       2.12
H      33.78      44.56      67.32
H      33.80      46.94      67.25
H      36.46      12.62      68.08
H      36.47      10.24      68.08
H      33.22      12.63       2.11
H      33.23      10.25       2.14
H      32.75       8.29       0.76
H      32.75       5.90       0.78
H      36.97       8.29       0.83
H      36.97       5.90       0.81
H      34.87       5.22      66.77
H      34.87       3.44      64.96
H      34.86       1.56      68.59
H      34.85      68.55       1.57
H      34.86       5.22       3.50
H      34.85       3.40       5.28
H      32.71       0.85       5.89
H      32.67       0.84       8.28
H      36.92       0.53       5.95
H      36.88       0.46       8.34
H      34.81      66.67       5.19
H      34.82      64.90       3.39
H      34.84      66.71      64.87
H      34.83      64.90      66.65
H      36.92      64.18       0.51
H      36.89      61.80       0.45
H      32.72      64.24       0.87
H      32.68      61.86       0.86
H      32.99      59.91      68.12
H      32.92      57.52      68.14
H      36.45      57.43       1.77
H      36.50      59.82       1.81
H      32.75       0.75      64.24
H      32.74       0.75      61.85
H      36.46      68.08      59.89
H      36.45      68.08      57.51
H      33.21       2.12      57.51
H      33.23       2.15      59.89
H      36.97       0.82      61.84
H      36.97       0.78      64.23
H      36.49       1.81      10.32
H      36.44       1.78      12.70
H      32.99      68.10      10.23
H      32.92      68.12      12.61
H      68.08      36.46      12.62
H      68.08      36.47      10.24
H       2.11      33.22      12.63
H       2.14      33.23      10.25
H       0.76      32.75       8.29
H       0.78      32.75       5.90
H       0.83      36.97       8.29
H       0.81      36.97       5.91
H      66.77      34.87       5.22
H      64.96      34.87       3.45
H      68.59      34.86       1.57
H       1.57      34.85      68.55
H       3.50      34.86       5.22
H       5.28      34.85       3.41
H       5.90      32.71       0.86
H       8.28      32.67       0.84
H       5.95      36.92       0.53
H       8.34      36.88       0.46
H       5.19      34.81      66.67
H       3.39      34.82      64.90
H      64.87      34.84      66.72
H      66.65      34.83      64.90
H       0.51      36.92      64.19
H       0.45      36.89      61.80
H       0.87      32.72      64.24
H       0.86      32.68      61.86
H      68.12      32.99      59.91
H      68.14      32.92      57.53
H       1.77      36.45      57.43
H       1.81      36.50      59.82
H      64.24      32.75       0.76
H      61.85      32.74       0.75
H      59.89      36.46      68.08
H      57.51      36.45      68.08
H      57.51      33.21       2.12
H      59.89      33.23       2.15
H      61.84      36.97       0.82
H      64.23      36.97       0.78
H      10.32      36.49       1.81
H      12.70      36.44       1.79
H      10.23      32.99      68.10
H      12.61      32.92      68.12
H      12.61      68.11      36.49
H      10.23      68.12      36.49
H      12.63       2.06      33.18
H      10.25       2.10      33.19
H       8.29       0.68      32.74
H       5.90       0.70      32.74
H       8.29       0.90      36.96
H       5.90       0.88      36.96
H       5.21      66.78      35.08
H       3.44      64.97      35.10
H       1.57      68.58      34.72
H      68.55       1.58      34.66
H       5.21       3.49      34.64
H       3.41       5.27      34.60
H      68.62       5.92      32.83
H      68.56       8.31      32.83
H       1.40       5.96      36.80
H       1.35       8.35      36.80
H      66.68       5.18      35.10
H      64.91       3.38      35.09
H      66.72      64.88      34.64
H      64.91      66.67      34.64
H      64.19       0.44      36.90
H      61.81       0.39      36.87
H      64.24       0.95      32.72
H      61.86       0.94      32.69
H      59.92      68.17      32.96
H      57.53      68.19      32.89
H      57.44       1.74      36.48
H      59.83       1.77      36.53
H       1.39      64.22      32.85
H       1.41      61.83      32.86
H      67.63      59.89      35.91
H      67.65      57.51      35.96
H       2.67      57.51      33.89
H       2.67      59.90      33.88
H       0.20      61.84      36.90
H       0.16      64.23      36.88
H       2.51      10.32      35.65
H       2.40      12.71      35.70
H      67.27      10.20      34.02
H      67.18      12.59      34.06
H       0.64      37.32      17.16
H       0.58      33.18      16.31
H       0.70      32.70      18.64
H       0.75      36.84      19.49
H       1.05      33.47      20.92
H       0.23      36.53      14.88
H      67.78      36.68      53.06
H       2.07      33.74      53.76
H       2.35      33.46      51.41
H      68.06      36.40      50.71
H       2.09      34.61      49.17
H       0.28      36.43      55.30
H      17.16       0.64      37.31
H      16.31       0.58      33.18
H      18.64       0.69      32.70
H      19.49       0.75      36.83
H      20.92       1.03      33.46
H      14.87       0.25      36.53
H      53.06      67.78      36.68
H      53.77       2.08      33.75
H      51.41       2.36      33.47
H      50.71      68.06      36.40
H      49.17       2.11      34.62
H      55.30       0.27      36.43
H      37.32      17.16       0.63
H      33.18      16.31       0.58
H      32.70      18.64       0.69
H      36.84      19.49       0.74
H      33.47      20.92       1.04
H      36.53      14.88       0.23
H      36.68      53.06      67.79
H      33.74      53.76       2.08
H      33.46      51.41       2.36
H      36.40      50.70      68.07
H      34.62      49.17       2.10
H      36.43      55.29       0.28
H      37.31       0.65      52.97
H      33.17       0.59      53.82
H      32.69       0.71      51.50
H      36.83       0.77      50.65
H      33.46       1.06      49.21
H      36.52       0.24      55.26
H      36.69      67.80      17.08
H      33.73       2.07      16.38
H      33.45       2.34      18.73
H      36.41      68.07      19.43
H      34.60       2.10      20.97
H      36.43       0.30      14.84
H       2.35      17.16      33.42
H      68.08      16.31      36.35
H      67.75      18.65      36.68
H       2.02      19.50      33.76
H       0.11      20.92      36.47
H       2.13      14.89      34.43
H      67.03      52.96      35.02
H       2.51      53.82      35.08
H       2.99      51.49      34.97
H      67.51      50.63      34.91
H       2.21      49.20      34.57
H      67.79      55.24      35.35
H      17.08      36.69      67.80
H      16.38      33.73       2.07
H      18.73      33.45       2.35
H      19.43      36.41      68.07
H      20.97      34.60       2.10
H      14.84      36.43       0.30
H      52.97      37.31       0.65
H      53.82      33.17       0.59
H      51.50      32.69       0.71
H      50.65      36.83       0.77
H      49.21      33.46       1.06
H      55.26      36.52       0.24
C       0.59      38.54      32.63
C       0.60      37.57      31.64
C       0.54      36.32      32.25
C       0.53      37.90      33.87
C       0.53      38.57      35.13
C       0.52      37.92      36.39
C       0.52      36.31      37.96
C       0.53      37.55      38.61
C       0.53      38.54      37.64
C       0.50      35.04      38.60
C       0.48      33.80      37.90
C       0.48      32.21      36.29
C       0.38      31.58      37.53
C       0.38      32.54      38.52
C       0.50      31.53      35.03
C       0.52      32.20      33.77
C       0.53      33.80      32.20
C       0.54      32.56      31.55
C       0.55      31.58      32.52
C       0.53      35.07      31.56
C       0.54      35.10      30.13
C       1.72      34.81      29.41
C       1.73      34.82      28.00
C       0.56      35.14      27.26
C      68.04      35.44      27.99
C      68.03      35.42      29.40
C       0.57      35.15      25.82
C      68.61      36.19      25.09
C      68.62      36.20      23.68
C       0.58      35.16      22.95
C       1.21      34.12      23.68
C       1.20      34.11      25.09
C       0.48      30.10      35.03
C       1.63      29.36      35.40
C       1.62      27.95      35.38
C       0.47      27.23      34.97
C      67.98      27.98      34.60
C      67.98      29.39      34.64
C       0.48      25.80      34.92
C       0.99      25.03      35.99
C       1.01      23.62      35.94
C       0.51      22.93      34.81
C       0.02      23.70      33.73
C      68.64      25.10      33.79
C       0.48      35.02      40.03
C      67.92      35.12      40.73
C      67.90      35.10      42.14
C       0.43      34.97      42.90
C       1.65      34.87      42.18
C       1.68      34.89      40.77
C       0.41      34.95      44.34
C       1.42      35.60      45.11
C       1.39      35.59      46.52
C       0.35      34.93      47.22
C      68.00      34.30      46.47
C      68.03      34.29      45.06
C       0.53      40.00      35.13
C      67.97      40.72      35.10
C       1.74      40.72      35.15
C       1.74      42.13      35.15
C       0.53      42.87      35.13
C      67.98      42.13      35.11
C       0.53      44.31      35.13
C      68.24      45.05      35.88
C      68.24      46.46      35.87
C       0.53      47.19      35.12
C       1.47      46.46      34.36
C       1.47      45.05      34.36
C      32.62       0.53      38.54
C      31.64       0.54      37.58
C      32.25       0.53      36.32
C      33.87       0.53      37.91
C      35.13       0.54      38.58
C      36.39       0.53      37.92
C      37.96       0.52      36.31
C      38.61       0.56      37.55
C      37.64       0.57      38.54
C      38.60       0.51      35.04
C      37.91       0.50      33.80
C      36.29       0.50      32.21
C      37.54       0.49      31.57
C      38.52       0.49      32.54
C      35.03       0.50      31.54
C      33.77       0.50      32.20
C      32.20       0.51      33.80
C      31.55       0.46      32.56
C      32.52       0.46      31.58
C      31.56       0.52      35.07
C      30.12       0.53      35.10
C      29.40       1.70      34.80
C      27.99       1.71      34.80
C      27.26       0.54      35.13
C      27.99      68.02      35.44
C      29.40      68.01      35.41
C      25.82       0.55      35.14
C      25.08      68.59      36.18
C      23.68      68.61      36.19
C      22.94       0.57      35.15
C      23.67       1.19      34.11
C      25.08       1.18      34.10
C      35.03       0.48      30.11
C      34.91       1.68      29.37
C      34.88       1.65      27.96
C      34.98       0.44      27.24
C      35.11      67.90      27.99
C      35.13      67.92      29.40
C      34.96       0.42      25.80
C      35.60       1.42      25.03
C      35.59       1.40      23.62
C      34.93       0.36      22.92
C      34.30      68.00      23.67
C      34.30      68.04      25.08
C      40.03       0.49      35.02
C      40.73      67.93      35.11
C      42.14      67.91      35.08
C      42.90       0.45      34.97
C      42.18       1.67      34.88
C      40.77       1.69      34.91
C      44.34       0.43      34.95
C      45.11       1.43      35.60
C      46.52       1.40      35.59
C      47.22       0.37      34.92
C      46.47      68.02      34.28
C      45.06      68.05      34.28
C      35.13       0.54      40.01
C      35.44      68.03      40.74
C      34.83       1.72      40.73
C      34.83       1.73      42.14
C      35.14       0.56      42.88
C      35.45      68.04      42.15
C      35.15       0.57      44.32
C      36.19      68.61      45.05
C      36.19      68.63      46.46
C      35.15       0.59      47.19
C      34.11       1.21      46.46
C      34.11       1.20      45.05
C      38.54      32.62       0.53
C      37.58      31.64       0.54
C      36.32      32.25       0.53
C      37.91      33.87       0.53
C      38.58      35.12       0.53
C      37.92      36.39       0.53
C      36.31      37.96       0.52
C      37.55      38.60       0.56
C      38.54      37.64       0.57
C      35.04      38.59       0.51
C      33.80      37.90       0.50
C      32.21      36.29       0.50
C      31.57      37.53       0.49
C      32.54      38.52       0.49
C      31.54      35.03       0.50
C      32.20      33.77       0.50
C      33.80      32.20       0.51
C      32.56      31.55       0.46
C      31.58      32.52       0.46
C      35.07      31.56       0.52
C      35.10      30.13       0.53
C      34.80      29.40       1.70
C      34.81      27.99       1.71
C      35.13      27.26       0.54
C      35.44      27.99      68.02
C      35.41      29.40      68.01
C      35.14      25.82       0.55
C      36.18      25.09      68.59
C      36.19      23.68      68.61
C      35.16      22.95       0.57
C      34.11      23.67       1.19
C      34.11      25.08       1.18
C      30.11      35.03       0.48
C      29.37      34.91       1.68
C      27.96      34.88       1.65
C      27.24      34.98       0.44
C      27.99      35.11      67.90
C      29.40      35.13      67.92
C      25.80      34.96       0.42
C      25.03      35.60       1.42
C      23.62      35.59       1.40
C      22.92      34.93       0.36
C      23.67      34.30      68.00
C      25.08      34.30      68.04
C      35.02      40.03       0.49
C      35.11      40.73      67.93
C      35.09      42.14      67.91
C      34.97      42.90       0.45
C      34.88      42.17       1.67
C      34.91      40.76       1.69
C      34.95      44.34       0.43
C      35.60      45.11       1.43
C      35.59      46.52       1.40
C      34.92      47.22       0.37
C      34.29      46.47      68.02
C      34.28      45.06      68.05
C      40.01      35.13       0.54
C      40.74      35.44      68.03
C      40.73      34.83       1.72
C      42.14      34.83       1.73
C      42.88      35.14       0.56
C      42.15      35.45      68.04
C      44.32      35.15       0.57
C      45.05      36.19      68.61
C      46.46      36.19      68.63
C      47.19      35.15       0.59
C      46.46      34.11       1.21
C      45.05      34.11       1.20
C      34.87       4.21      66.95
C      34.87       3.25      65.96
C      34.87       1.99      66.58
C      34.87       3.58      68.19
C      34.86       4.25       0.79
C      34.86       3.59       2.06
C      34.84       1.99       3.63
C      34.85       3.23       4.27
C      34.85       4.21       3.31
C      34.84       0.72       4.27
C      34.84      68.13       3.58
C      34.84      66.54       1.96
C      34.83      65.90       3.21
C      34.82      66.87       4.19
C      34.84      65.87       0.70
C      34.85      66.53      68.10
C      34.86      68.13      66.52
C      34.85      66.89      65.88
C      34.84      65.90      66.85
C      34.86       0.74      65.89
C      34.86       0.77      64.46
C      36.07       0.78      63.74
C      36.07       0.79      62.33
C      34.86       0.79      61.59
C      33.65       0.78      62.33
C      33.65       0.77      63.74
C      34.85       0.79      60.15
C      33.91       1.56      59.41
C      33.91       1.55      58.00
C      34.84       0.79      57.27
C      35.78       0.02      58.00
C      35.78       0.02      59.41
C      34.82      64.44       0.70
C      36.02      63.70       0.59
C      36.00      62.29       0.56
C      34.78      61.57       0.65
C      33.59      62.32       0.77
C      33.60      63.73       0.79
C      34.76      60.13       0.63
C      35.76      59.36       1.28
C      35.73      57.95       1.27
C      34.70      57.25       0.60
C      33.69      58.00      68.62
C      33.73      59.41      68.62
C      34.82       0.69       5.70
C      33.60       0.77       6.40
C      33.58       0.75       7.81
C      34.77       0.64       8.57
C      35.99       0.56       7.85
C      36.02       0.59       6.44
C      34.75       0.62      10.01
C      35.75       1.28      10.78
C      35.72       1.27      12.19
C      34.69       0.59      12.89
C      33.69      68.61      12.14
C      33.72      68.61      10.73
C      34.86       5.68       0.79
C      33.65       6.40       0.79
C      36.07       6.40       0.80
C      36.07       7.81       0.80
C      34.86       8.55       0.79
C      33.65       7.81       0.79
C      34.86       9.99       0.79
C      33.92      10.73       1.55
C      33.91      12.14       1.54
C      34.85      12.86       0.78
C      35.79      12.13       0.01
C      35.79      10.72       0.02
C      66.95      34.87       4.22
C      65.96      34.87       3.25
C      66.58      34.87       1.99
C      68.19      34.87       3.58
C       0.79      34.86       4.25
C       2.06      34.86       3.59
C       3.63      34.84       1.99
C       4.27      34.85       3.23
C       3.31      34.85       4.22
C       4.27      34.84       0.72
C       3.58      34.84      68.13
C       1.96      34.84      66.54
C       3.21      34.83      65.90
C       4.19      34.82      66.87
C       0.70      34.84      65.87
C      68.10      34.85      66.53
C      66.52      34.86      68.13
C      65.88      34.85      66.89
C      66.85      34.84      65.91
C      65.89      34.86       0.75
C      64.46      34.86       0.77
C      63.74      36.07       0.78
C      62.33      36.07       0.79
C      61.59      34.85       0.79
C      62.33      33.65       0.78
C      63.74      33.65       0.77
C      60.15      34.85       0.80
C      59.41      33.91       1.56
C      58.00      33.91       1.55
C      57.27      34.84       0.79
C      58.00      35.78       0.02
C      59.41      35.78       0.02
C       0.70      34.82      64.44
C       0.59      36.02      63.70
C       0.56      36.00      62.29
C       0.65      34.78      61.57
C       0.77      33.58      62.33
C       0.79      33.60      63.73
C       0.63      34.76      60.13
C       1.28      35.76      59.36
C       1.26      35.73      57.95
C       0.59      34.70      57.25
C      68.62      33.69      58.00
C      68.62      33.72      59.41
C       5.70      34.82       0.69
C       6.40      33.60       0.77
C       7.81      33.58       0.75
C       8.57      34.77       0.64
C       7.85      35.99       0.57
C       6.44      36.02       0.59
C      10.01      34.75       0.62
C      10.78      35.75       1.28
C      12.19      35.72       1.27
C      12.89      34.69       0.60
C      12.14      33.69      68.61
C      10.73      33.72      68.61
C       0.79      34.86       5.68
C       0.79      33.65       6.40
C       0.80      36.07       6.40
C       0.80      36.07       7.81
C       0.79      34.86       8.55
C       0.79      33.65       7.81
C       0.79      34.86       9.99
C       1.55      33.92      10.73
C       1.55      33.91      12.14
C       0.79      34.85      12.87
C       0.01      35.79      12.14
C       0.02      35.79      10.73
C       4.21      66.95      35.02
C       3.24      65.97      35.02
C       1.99      66.58      34.91
C       3.57      68.19      34.90
C       4.24       0.79      34.85
C       3.59       2.05      34.80
C       1.99       3.63      34.78
C       3.23       4.27      34.68
C       4.21       3.30      34.70
C       0.72       4.27      34.82
C      68.13       3.58      34.88
C      66.55       1.96      34.88
C      65.91       3.20      35.01
C      66.88       4.19      35.01
C      65.88       0.71      34.83
C      66.53      68.10      34.79
C      68.13      66.53      34.81
C      66.89      65.89      34.71
C      65.91      66.86      34.70
C       0.75      65.89      34.86
C       0.77      64.45      34.87
C       0.42      63.73      36.03
C       0.44      62.32      36.03
C       0.81      61.58      34.88
C       1.16      62.32      33.72
C       1.14      63.73      33.71
C       0.81      60.15      34.89
C       1.87      59.41      34.30
C       1.88      58.00      34.32
C       0.83      57.27      34.91
C      68.43      58.00      35.50
C      68.42      59.41      35.49
C      64.45       0.70      34.82
C      63.71       0.55      36.01
C      62.30       0.53      35.99
C      61.57       0.66      34.78
C      62.33       0.82      33.58
C      63.74       0.84      33.60
C      60.13       0.63      34.75
C      59.36       1.26      35.77
C      57.96       1.24      35.74
C      57.26       0.60      34.70
C      58.01      68.65      33.67
C      59.42      68.65      33.71
C       0.69       5.71      34.82
C       0.26       6.42      33.68
C       0.22       7.83      33.68
C       0.62       8.58      34.81
C       1.07       7.86      35.95
C       1.09       6.45      35.95
C       0.58      10.01      34.82
C       1.66      10.78      35.30
C       1.61      12.19      35.32
C       0.47      12.88      34.85
C      68.03      12.12      34.38
C      68.09      10.71      34.35
C       5.67       0.79      34.85
C       6.39       0.74      33.64
C       6.40       0.84      36.06
C       7.80       0.84      36.06
C       8.54       0.79      34.85
C       7.80       0.75      33.64
C       9.98       0.79      34.85
C      10.72       1.53      33.89
C      12.13       1.52      33.89
C      12.86       0.78      34.85
C      12.13       0.03      35.80
C      10.72       0.04      35.80
C       0.69      33.68      18.35
C       0.63      33.96      16.97
C       0.61      35.30      16.49
C       0.65      36.34      17.46
C       0.71      36.05      18.84
C       0.73      34.72      19.31
C       0.81      34.40      20.67
C       0.51      35.61      15.13
C       1.64      34.12      51.74
C       1.47      34.28      53.13
C       0.55      35.22      53.65
C      68.44      35.98      52.73
C      68.60      35.81      51.34
C       0.89      34.89      50.82
C       1.16      34.80      49.45
C       0.47      35.50      55.01
C      18.34       0.68      33.68
C      16.96       0.62      33.96
C      16.49       0.60      35.30
C      17.45       0.65      36.33
C      18.83       0.71      36.05
C      19.31       0.72      34.71
C      20.67       0.80      34.40
C      15.13       0.52      35.61
C      51.74       1.65      34.13
C      53.14       1.48      34.29
C      53.65       0.55      35.22
C      52.73      68.45      35.98
C      51.34      68.61      35.81
C      50.82       0.89      34.89
C      49.46       1.17      34.80
C      55.02       0.47      35.50
C      33.68      18.34       0.68
C      33.96      16.97       0.62
C      35.30      16.49       0.60
C      36.33      17.46       0.64
C      36.05      18.84       0.71
C      34.72      19.31       0.72
C      34.40      20.67       0.80
C      35.61      15.13       0.51
C      34.12      51.74       1.65
C      34.28      53.13       1.48
C      35.22      53.65       0.56
C      35.98      52.72      68.45
C      35.81      51.33      68.61
C      34.89      50.82       0.89
C      34.80      49.45       1.17
C      35.50      55.01       0.47
C      33.67       0.70      51.79
C      33.95       0.64      53.17
C      35.29       0.62      53.64
C      36.33       0.66      52.68
C      36.04       0.73      51.30
C      34.71       0.74      50.83
C      34.39       0.83      49.47
C      35.60       0.52      55.00
C      34.11       1.64      18.40
C      34.27       1.47      17.01
C      35.22       0.56      16.49
C      35.98      68.46      17.41
C      35.81      68.61      18.80
C      34.88       0.89      19.32
C      34.80       1.16      20.69
C      35.49       0.48      15.12
C      68.42      18.35      35.97
C      68.61      16.97      35.77
C       0.91      16.50      34.83
C       1.64      17.46      34.09
C       1.44      18.84      34.29
C       0.50      19.31      35.24
C       0.37      20.67      35.54
C       1.21      15.14      34.70
C       2.01      51.78      34.98
C       1.73      53.16      35.04
C       0.39      53.64      35.05
C      68.01      52.67      35.01
C      68.30      51.29      34.95
C       0.97      50.82      34.94
C       1.29      49.46      34.85
C       0.07      54.99      35.13
C      18.40      34.11       1.64
C      17.01      34.27       1.48
C      16.49      35.22       0.56
C      17.41      35.98      68.46
C      18.80      35.81      68.61
C      19.32      34.88       0.89
C      20.69      34.80       1.16
C      15.12      35.49       0.48
C      51.79      33.67       0.70
C      53.17      33.95       0.64
C      53.64      35.29       0.62
C      52.68      36.33       0.66
C      51.30      36.04       0.73
C      50.83      34.71       0.74
C      49.47      34.39       0.83
C      55.00      35.60       0.53
N       0.50      36.58      33.59
N       0.51      36.59      36.64
N       0.54      33.54      36.57
N       0.51      33.53      33.52
N       0.57      35.25      21.61
N       0.45      48.52      35.14
N       0.25      34.95      48.55
N       0.57      21.60      34.68
N      33.58       0.53      36.58
N      36.63       0.51      36.59
N      36.57       0.51      33.54
N      33.52       0.53      33.53
N      21.61       0.56      35.24
N      35.24       0.58      48.53
N      48.55       0.26      34.94
N      34.95       0.26      21.59
N      36.58      33.58       0.53
N      36.59      36.63       0.51
N      33.54      36.57       0.51
N      33.53      33.52       0.53
N      35.24      21.61       0.56
N      48.53      35.24       0.58
N      34.94      48.55       0.26
N      21.59      34.95       0.26
N      34.87       2.25      67.91
N      34.85       2.26       2.31
N      34.84      67.87       2.24
N      34.86      67.86      67.85
N      34.76       0.81      55.94
N      34.77      14.20       0.80
N      34.59       0.61      14.22
N      34.59      55.92       0.62
N      67.91      34.87       2.25
N       2.31      34.85       2.26
N       2.24      34.84      67.87
N      67.85      34.86      67.86
N      55.94      34.76       0.81
N       0.81      34.77      14.20
N      14.22      34.59       0.62
N       0.61      34.59      55.92
N       2.25      67.91      34.84
N       2.26       2.31      34.85
N      67.87       2.25      34.81
N      67.86      67.85      34.86
N       0.92      55.94      34.90
N      14.19       0.80      34.77
N       0.34      14.21      34.90
N      55.92       0.62      34.59
