41

C       4.80       6.82      30.14
C       3.47       7.38      30.44
C       3.31       8.13      31.60
C       2.08       8.70      31.89
C       1.01       8.53      31.02
C       1.17       7.78      29.86
C       2.40       7.20      29.57
C      -0.31       9.26      31.39
C      -1.52       8.62      30.77
C      -2.01       9.02      29.53
C      -2.19       7.61      31.44
C      -5.15       6.93      29.19
C      -3.84       7.48      29.69
C      -3.18       8.49      29.00
C      -3.30       7.05      30.89
C       0.01      14.95      30.25
C      -0.09      13.50      30.49
C       0.55      12.59      29.66
C       0.51      11.23      29.96
C      -0.19      10.76      31.03
C      -0.83      11.67      31.86
O       5.70       6.92      31.01
O       4.99       6.28      29.02
C      -0.77      13.02      31.58
O       0.31      15.26      29.04
O      -5.55       5.87      29.73
O      -5.72       7.56      28.29
O      -0.32      15.73      31.15
H       4.03       8.25      32.18
H       1.97       9.20      32.67
H       0.45       7.66      29.28
H       2.51       6.70      28.80
H      -0.41       9.21      32.36
H      -1.55       9.66      29.04
H      -1.87       7.32      32.27
H      -3.52       8.80      28.19
H      -3.71       6.35      31.34
H       1.01      12.89      28.90
H       0.97      10.63      29.43
H      -1.30      11.36      32.61
H      -1.21      13.62      32.14
