41

O      10.51       8.64      11.53
O       9.52      16.76      18.42
O       8.26      18.27      17.38
O      10.12      18.28       6.85
O       8.42      16.85       6.83
O       8.81       9.01      12.83
H      11.18      15.86      16.85
H      11.93      14.99      14.83
H       8.79      16.65      12.95
H       8.04      17.52      14.96
H      12.01      15.16      12.47
H      12.35      13.04      11.38
H      11.84      10.78      11.22
H       8.46      11.39      13.30
H       8.96      13.65      13.46
H       8.90      14.56      10.75
H      11.97      17.11      11.08
H       8.27      15.54       8.88
H      11.30      18.11       9.08
C       9.05      17.32      17.39
C       9.53      16.78      16.10
C      10.70      16.02      16.07
C      11.15      15.50      14.86
C      10.44      15.73      13.69
C       9.27      16.49      13.73
C       8.82      17.01      14.93
C      11.04      15.06      12.45
C      10.70      13.57      12.44
C      11.57      12.71      11.77
C      11.27      11.36      11.67
C      10.10      10.86      12.25
C       9.24      11.72      12.92
C       9.54      13.08      13.01
C      10.50      15.73      11.16
C       9.40      15.28      10.43
C      11.23      16.79      10.63
C       9.43      17.37       7.36
C       9.77      16.86       8.68
C       9.05      15.84       9.29
C      10.83      17.37       9.41
C       9.75       9.40      12.18
