41

C       6.04      23.21      29.08
C       5.18      24.07      28.41
C       5.48      25.42      28.32
C       6.65      25.92      28.89
C       7.51      25.06      29.56
C       7.21      23.70      29.66
C       6.25      21.05      27.81
C       7.35      21.50      27.07
C       5.52      19.99      27.27
C       7.32      19.41      24.01
C       6.98      19.92      25.33
C       7.70      20.94      25.94
C       5.91      19.41      26.05
C       7.00      27.38      28.83
O       6.24      28.14      28.17
O       7.22      20.02      35.07
O       8.49      18.51      34.03
O       6.63      18.50      23.49
O       8.33      19.93      23.48
O       7.94      27.77      29.47
H       5.57      20.91      33.49
H       4.82      21.79      31.48
H       7.96      20.13      29.59
H       8.71      19.26      31.61
H       4.74      21.62      29.12
H       4.40      23.74      28.02
H       4.91      26.00      27.87
H       8.29      25.39      29.95
H       7.79      23.13      30.11
H       7.85      22.22      27.40
H       4.77      19.67      27.72
H       8.48      21.24      25.52
H       5.45      18.67      25.73
C       7.70      19.45      34.03
C       7.22      20.00      32.75
C       6.05      20.76      32.71
C       5.60      21.28      31.51
C       6.31      21.04      30.34
C       7.48      20.29      30.37
C       7.93      19.76      31.58
C       5.71      21.72      29.09
