41

C       3.18      16.03       4.29
C       3.30      17.47       2.40
C      -0.01       9.57       3.04
C      -4.80      17.70       3.16
C      -3.47      17.14       2.85
C      -3.31      16.39       1.69
C      -2.08      15.82       1.40
C      -1.01      15.99       2.27
C      -1.17      16.74       3.43
H      -4.03      16.27       1.11
H      -1.97      15.31       0.62
H      -0.45      16.86       4.01
C       1.52      15.89       2.52
H      -2.51      17.81       4.49
H       0.41      15.31       0.93
C       0.31      15.25       1.90
C       2.01      15.50       3.76
C       2.19      16.90       1.85
H       3.52      15.72       5.10
C       3.84      17.04       3.60
H       1.55      14.86       4.25
H      -0.97      13.89       3.86
C       5.15      17.58       4.10
O      -0.31       9.26       4.25
H       1.21      10.90       1.16
O       0.32       8.79       2.14
C      -0.51      13.29       3.33
O      -4.99      18.24       4.27
H       3.71      18.17       1.95
H      -1.01      11.63       4.39
H       1.30      13.15       0.69
C      -0.55      11.93       3.64
O      -5.70      17.60       2.29
C       0.09      11.02       2.80
C       0.83      12.85       1.43
C       0.19      13.76       2.26
O       5.72      16.96       5.00
C       0.77      11.50       1.71
O       5.55      18.65       3.56
H       1.87      17.20       1.03
C      -2.40      17.31       3.72
