41

C      13.18      17.70      30.14
C      11.85      17.14      30.44
C      11.69      16.39      31.60
C      10.45      15.82      31.89
C       9.38      15.99      31.02
C       9.54      16.74      29.86
C      10.78      17.31      29.57
C       8.06      15.25      31.39
C       6.85      15.89      30.77
C       6.36      15.50      29.53
C       6.19      16.90      31.44
C       3.22      17.58      29.19
C       4.54      17.04      29.69
C       5.20      16.03      29.00
C       5.08      17.47      30.89
C       8.39       9.57      30.25
C       8.29      11.02      30.49
C       8.93      11.93      29.66
C       8.88      13.29      29.96
C       8.18      13.76      31.03
C       7.54      12.85      31.86
C       7.60      11.50      31.58
H      12.40      16.27      32.18
H      10.35      15.31      32.67
H       8.83      16.86      29.28
H      10.88      17.81      28.80
H       7.96      15.31      32.36
H       6.83      14.86      29.04
H       6.50      17.20      32.27
H       4.86      15.72      28.19
H       4.66      18.17      31.34
H       9.38      11.63      28.90
H       9.35      13.89      29.43
H       7.08      13.15      32.61
H       7.16      10.90      32.14
O       8.69       9.26      29.04
O       8.06       8.79      31.15
O      14.07      17.60      31.01
O      13.37      18.24      29.02
O       2.83      18.65      29.73
O       2.65      16.96      28.29
