25

N       8.31       7.87       1.04
N       8.83       8.59       2.06
N      10.28       6.91       1.54
N       7.69       6.22      -0.94
N      12.40       9.21       5.65
C      10.01       7.98       2.34
C       9.21       6.89       0.74
C       8.91       6.01      -0.37
C       9.79       5.03      -0.85
C       9.40       4.26      -1.95
H      10.06       3.50      -2.35
H       7.82       3.91      -3.40
H      10.75       4.91      -0.36
H      11.47      11.06       5.50
C       8.15       4.49      -2.54
C       7.33       5.48      -2.00
C      11.53      10.07       5.06
C      10.76       9.71       3.97
C      10.86       8.42       3.43
C      11.79       7.55       4.02
H      10.07      10.43       3.52
C      12.52       7.98       5.11
H      11.92       6.55       3.62
H      13.24       7.32       5.60
H       6.34       5.70      -2.42
