25

N       5.67       8.31       7.13
N       6.03       7.02       7.40
N       7.75       8.05       6.31
N       5.53      10.93       6.49
N       9.95       3.56       7.24
C       7.76       4.52       7.60
H      11.32       4.76       6.24
H       8.62      10.36       5.23
H       8.41      12.84       4.71
H       6.30      14.02       5.38
H       4.50      12.71       6.54
H       8.42       2.55       8.21
C       7.29       6.91       6.89
H       9.79       6.70       5.99
C       6.72       8.88       6.48
C       6.67      10.29       6.12
C       7.73      10.94       5.48
C       7.60      12.30       5.20
C       6.43      12.96       5.57
C       5.43      12.24       6.22
C       8.14       5.72       6.98
C       9.45       5.79       6.47
C      10.30       4.71       6.62
H       6.76       4.38       8.00
C       8.69       3.48       7.71
