178

Gd       7.45       7.66       7.66
Gd       2.48       7.66       7.66
H       7.78       8.92      11.30
H       7.79      11.00      12.63
H       7.78       6.40       4.02
H       7.79       4.32       2.69
H       7.78       4.02       8.91
H       7.78       2.66      10.97
H       7.78      11.29       6.41
H       7.78      12.65       4.34
H       7.13       6.40      11.29
H       7.12       4.32      12.62
H       7.13       8.91       4.03
H       7.12      11.00       2.70
H       7.13      11.29       8.90
H       7.14      12.66      10.97
H       7.13       4.03       6.41
H       7.13       2.66       4.35
H       2.16       6.41       4.03
H       2.16       4.35       2.66
H       2.16       8.90      11.29
H       2.16      10.97      12.65
H       2.15      11.29       6.40
H       2.15      12.63       4.32
H       2.15       4.02       8.91
H       2.15       2.69      10.99
H       2.81       8.91       4.02
H       2.81      10.97       2.66
H       2.81       6.41      11.29
H       2.81       4.35      12.66
H       2.81       4.02       6.40
H       2.82       2.69       4.31
H       2.81      11.29       8.92
H       2.82      12.62      11.00
H       0.07      12.84      10.63
H       0.07       0.16      10.03
H       0.07       2.48       4.68
H       0.07      15.15       5.29
H       9.87       4.68      12.84
H       9.87       5.29       0.16
H       9.87      10.63       2.48
H       9.87      10.03      15.15
H       4.89       2.48      10.64
H       4.88      15.15      10.04
H       4.89      12.84       4.68
H       4.88       0.16       5.28
H       5.05      10.64      12.84
H       5.06      10.04       0.16
H       5.05       4.68       2.48
H       5.06       5.28      15.15
C       8.73       9.36      11.60
C       8.73      10.54      12.34
C       8.73       5.96       3.72
C       8.73       4.77       2.98
C       8.72       3.71       9.35
C       8.73       2.96      10.53
C       8.72      11.60       5.97
C       8.73      12.36       4.79
C       6.18       5.96      11.60
C       6.18       4.78      12.33
C       6.18       9.35       3.72
C       6.18      10.54       2.99
C       6.19      11.61       9.34
C       6.19      12.36      10.52
C       6.19       3.71       5.97
C       6.19       2.96       4.80
C       1.21       5.97       3.71
C       1.21       4.79       2.96
C       1.21       9.35      11.60
C       1.21      10.52      12.36
C       1.21      11.60       5.96
C       1.21      12.34       4.78
C       1.21       3.72       9.35
C       1.21       2.98      10.54
C       3.75       9.35       3.71
C       3.75      10.52       2.95
C       3.75       5.97      11.61
C       3.75       4.79      12.36
C       3.75       3.72       5.96
C       3.76       2.98       4.77
C       3.75      11.60       9.36
C       3.76      12.33      10.54
C       9.94       8.76      11.24
C       0.00      11.13      12.72
C       0.01      12.40      13.50
C       9.86      13.61      12.78
C       0.00      13.69      11.31
C       9.94      15.01      11.00
C       9.85       0.41      12.29
C       9.94       6.55       4.08
C       0.00       4.18       2.60
C       0.01       2.91       1.82
C       9.86       1.70       2.54
C       0.00       1.63       4.01
C       9.94       0.31       4.31
C       9.85      14.91       3.03
C       9.94       4.08       8.76
C       9.94       2.60      11.13
C       9.94       1.82      12.40
C       0.09       2.54      13.61
C       9.94       4.01      13.69
C       0.00       4.31      15.01
C       0.09       3.03       0.41
C       9.94      11.24       6.55
C       9.94      12.72       4.18
C       9.94      13.50       2.91
C       0.09      12.78       1.70
C       9.94      11.31       1.63
C       0.00      11.00       0.31
C       0.09      12.29      14.91
C       4.96       6.55      11.24
C       4.97       4.18      12.72
C       4.97       2.91      13.50
C       5.08       1.70      12.78
C       4.98       1.63      11.31
C       4.98       0.31      11.01
C       5.08      14.91      12.29
C       4.96       8.76       4.07
C       4.97      11.13       2.60
C       4.97      12.40       1.81
C       5.08      13.62       2.53
C       4.98      13.69       4.00
C       4.98      15.01       4.31
C       5.08       0.41       3.02
C       4.97      11.24       8.76
C       4.98      12.72      11.13
C       4.97      13.50      12.40
C       4.87      12.78      13.62
C       4.97      11.31      13.69
C       4.97      11.01      15.01
C       4.87      12.29       0.41
C       4.97       4.07       6.55
C       4.98       2.60       4.18
C       4.97       1.81       2.91
C       4.87       2.53       1.70
C       4.97       4.00       1.63
C       4.97       4.31       0.31
C       4.87       3.02      14.91
S       9.93       7.16      10.45
S       9.93       8.16       4.86
S       9.93       4.86       7.16
S       9.93      10.45       8.16
S       4.96       8.16      10.45
S       4.96       7.16       4.86
S       4.96      10.45       7.16
S       4.96       4.86       8.16
N       9.74      14.86      13.34
N       9.74       0.46       1.98
N       0.21       1.98      14.86
N       0.21      13.34       0.46
N       5.21       0.46      13.34
N       5.21      14.86       1.98
N       4.74      13.34      14.86
N       4.74       1.98       0.46
O       8.69       7.08       9.63
O       8.69       8.24       5.69
O       8.69       5.69       7.08
O       8.69       9.62       8.24
O       6.18       8.24       9.60
O       6.18       7.08       5.71
O       6.18       9.60       7.08
O       6.18       5.71       8.24
O       1.20       8.24       5.71
O       1.21       7.08       9.60
O       1.21       9.60       8.24
O       1.21       5.71       7.08
O       3.72       7.08       5.69
O       3.72       8.23       9.63
O       3.72       5.68       8.23
O       3.72       9.63       7.08
O       9.94       6.20      11.55
O       9.94       9.12       3.76
O       9.94       3.76       6.20
O       9.94      11.55       9.12
O       4.97       9.12      11.55
O       4.97       6.20       3.76
O       4.97      11.55       6.20
O       4.97       3.76       9.12
