15

Cu       7.31      17.31       3.92
N       7.77      15.72       3.07
C       7.97      14.47       3.55
Cu       7.35      17.23       0.75
Cu       5.99      19.74       2.29
N       6.51      18.58      -0.23
N       5.91      19.63       0.43
C       8.10      14.44       1.30
C       6.41      18.94       6.17
C       5.42      20.63       5.06
C       6.31      18.71      -1.56
C       5.32      20.44      -0.49
N       6.57      18.74       4.85
N       5.96      19.77       4.16
N       7.85      15.70       1.70
