27

H       5.07       5.44      10.33
H       2.55      -0.64      12.10
H       6.38       7.37       9.50
H       4.49       4.80      14.04
C       4.67       4.75      12.97
H       3.06       3.44      14.80
C       2.67       0.28      12.67
H       4.46       3.58      11.22
C       6.90       8.08      11.47
C       4.23       3.67      12.28
H       3.67       1.30      11.08
C       3.31       1.38      12.10
C       3.50       2.56      12.85
C       6.30       7.18      10.57
H       7.29       8.52      13.54
C       6.80       7.84      12.85
H       5.97       6.59      14.39
N       2.19       0.29      13.93
H       1.93       1.40      15.66
O       7.69       9.46       9.69
C       5.57       6.10      11.04
O       8.03      10.19      11.77
C       2.98       2.56      14.16
C       5.43       5.87      12.43
C       6.06       6.76      13.32
C       7.59       9.29      10.95
C       2.34       1.43      14.65
