27

C      11.26      12.59       1.52
H      12.08      13.84       3.06
C      11.99      13.67       1.99
H       9.38       7.77       1.45
H      10.76      11.93       2.22
C       9.00       7.87       0.43
H       8.22       5.86       0.42
H      12.96      15.03      -0.98
C       8.65       9.07      -1.61
H      11.63      13.11      -1.83
H      10.16      10.07       1.33
C      12.47      14.34      -0.29
H       7.58       7.93      -3.11
C      11.73      13.26      -0.76
C       9.19       9.05      -0.31
H       8.73       9.95      -2.24
N       7.85       6.81      -1.39
H      10.15      11.31      -1.49
O      13.43      15.91       2.87
C      12.60      14.56       1.09
O      13.71      16.69       0.80
C       8.00       7.95      -2.11
C      10.35      11.25      -0.41
C      13.30      15.77       1.62
C      11.11      12.36       0.13
C       9.92      10.17       0.27
C       8.34       6.79      -0.13
