27

C       6.40       8.02       5.91
C       1.60      10.55       8.08
H       2.70       9.78       6.42
H       2.63      10.93      11.19
C       8.65       6.93       4.59
C       2.68      10.67      10.14
C       3.89       9.78       8.24
H       7.30       6.51       2.97
C       5.12       9.24       7.68
H       4.72      10.00      10.24
H       6.02       9.42       8.28
C       2.72      10.00       7.48
H       5.31       7.43       4.14
H       7.79       8.46       7.53
H       9.76       7.49       6.35
C       9.82       6.33       3.90
N       1.57      10.88       9.40
H       4.28       8.35       5.96
H       0.69      10.76       7.52
C       7.40       6.93       3.96
C       6.29       7.46       4.62
O      11.00       6.41       4.37
O       9.60       5.71       2.78
C       3.84      10.14       9.60
C       5.20       8.55       6.52
C       8.78       7.50       5.88
C       7.68       8.04       6.53
