14

H       4.97       7.57       1.82
H       2.45      11.11       4.02
N       4.07      10.68       2.77
N       2.60       9.07       3.73
C       4.77       9.69       2.17
C       2.84       6.68       3.45
C       4.40       8.35       2.32
C       3.31       8.08       3.13
C       6.01      10.07       1.37
O       6.21      11.34       1.25
C       3.02      10.33       3.52
O       3.65       5.74       3.19
O       6.73       9.17       0.93
O       1.70       6.55       3.99
