14

C       6.08       9.35      14.12
O       4.64       7.70      15.04
C       6.45      10.69      13.97
C       7.54      10.96      13.16
C       4.83       8.97      14.92
C       7.83       8.71      12.77
O       4.12       9.87      15.37
C       8.01      12.36      12.84
O       7.20      13.30      13.10
H       5.88      11.47      14.47
O       9.15      12.49      12.29
H       8.40       7.93      12.27
N       6.78       8.36      13.52
N       8.25       9.97      12.56
