90

In       2.02       1.40       7.86
In       3.66       8.35       0.83
In       2.15      12.49       9.51
In       0.51       5.55      16.54
In      -1.51       0.00       8.69
In       0.00       6.95       0.00
H      -0.74       3.24      13.46
H       1.54       2.87      12.62
H       3.40      10.18      12.60
H       1.12       9.81      13.44
H       4.91      10.65       3.91
H       2.63      11.03       4.75
H       0.77       3.71       4.78
H       3.05       4.08       3.94
C       3.51       2.37      11.93
C       4.92       2.46      12.15
C      -1.81       3.16      13.27
C       4.48       3.78      14.14
C       3.09       3.68      13.90
C       2.61       2.96      12.81
C       2.96       1.66      10.73
C      -1.33       1.81      11.16
C      -2.20       4.61      15.29
C       2.09       4.32      14.80
C      -0.85       9.31      14.13
C      -2.26       9.41      13.91
C       4.47      10.11      12.79
C      -1.82      10.73      11.92
C      -0.43      10.63      12.16
C       0.05       9.90      13.25
C      -0.30       8.61      15.33
C       3.99       8.76      14.90
C       4.86      11.55      10.77
C       0.57      11.27      11.26
C       0.66      11.52       5.44
C      -0.75      11.43       5.23
C       5.98      10.73       4.10
C      -0.31      10.11       3.23
C       1.08      10.21       3.47
C       1.56      10.94       4.56
C       1.21      12.23       6.65
C       5.50      12.08       6.22
C       6.37       9.28       2.08
C       2.08       9.57       2.57
C       5.02       4.58       3.24
C       6.43       4.48       3.46
C      -0.30       3.79       4.58
C       6.00       3.17       5.46
C       4.60       3.26       5.21
C       4.12       3.99       4.12
C       4.47       5.29       2.04
C       0.18       5.13       2.47
C      -0.69       2.34       6.61
C       3.61       2.62       6.11
O       2.40       2.35       9.84
O       3.12       0.40      10.79
O       5.40       1.74       9.95
O      -0.24       1.38      11.58
O      -1.11       4.24      15.82
O       4.28       5.62      15.59
O       2.01       3.90      16.00
O       1.33       5.23      14.35
O       3.52      13.77       8.37
O       0.26       9.30      16.22
O      -0.46       7.34      15.27
O      -2.74       8.69      16.11
O       2.90       8.33      14.48
O       3.76      11.18      10.23
O      -1.62      12.57      10.47
O       0.65      10.85      10.06
O       1.33      12.18      11.71
O       2.16       6.82       0.32
O       1.78      11.54       7.53
O       1.05      13.50       6.58
O      -1.23      12.15       7.42
O       4.41      12.51       5.79
O       5.28       9.66       1.55
O      -0.11       8.27       1.78
O       2.16       9.99       1.37
O       2.84       8.66       3.02
O       0.65       0.12       9.01
O       3.91       4.60       1.15
O       4.63       6.55       2.11
O       6.92       5.21       1.27
O       1.27       5.56       2.90
O       0.41       2.71       7.14
O       5.80       1.33       6.91
O       3.52       3.04       7.31
O       2.84       1.71       5.67
O       2.01       7.07      17.05
