288

Zn       6.40       9.96       1.43
Zn       9.16       0.57      20.77
Zn       9.24       2.04      17.50
Zn       6.47      11.43       4.69
Zn       4.03       3.98      14.64
Zn       1.26       6.58      27.45
Zn       1.18       8.04      30.71
Zn       3.95       5.44      11.38
H       2.51      11.09       1.26
H       0.03      10.99       1.11
H       9.01       9.60       5.49
H      10.15       8.82       7.53
H       2.24       8.66       7.57
H       3.53       9.38       5.61
H       5.42       2.67       1.98
H       5.11       4.94       0.97
H       6.95       7.99       4.22
H       7.80       7.75       6.52
H       7.99       5.48       7.57
H       7.27       3.48       6.31
H       5.61       0.83      25.34
H       4.65      11.94      27.43
H       8.63      11.38      29.03
H       9.57       0.28      26.94
H       7.37      11.70      23.38
H      10.34       2.66      22.87
H       9.57       2.64      25.54
H       7.83      10.93      30.83
H       3.80      10.05      31.73
H       3.91      10.94      29.13
H       2.70       0.91      17.33
H       5.18       1.02      17.17
H       6.62       2.41      21.55
H       5.48       3.18      23.59
H       2.98       3.35      23.64
H       1.68       2.63      21.68
H      10.21       9.33      18.05
H       0.10       7.06      17.05
H       8.68       4.02      20.31
H       7.83       4.27      22.60
H       7.64       6.53      23.65
H       8.36       8.53      22.38
H      10.03      11.18       9.27
H       0.57       0.07      11.36
H       7.01       0.63      12.96
H       6.07      11.73      10.87
H       8.27       0.31       7.31
H       5.30       9.35       6.80
H       6.06       9.37       9.47
H       7.81       1.09      14.75
H       1.42       1.97      15.66
H       1.31       1.08      13.06
H       7.89       5.10      14.80
H      10.37       5.00      14.96
H       1.40       3.61      10.59
H       0.28       2.84       8.55
H       8.19       2.67       8.49
H       6.89       3.38      10.45
H       5.00       8.67      14.09
H       5.31      10.95      15.09
H       3.47       2.00      11.83
H       2.62       1.75       9.54
H       2.44      11.47       8.49
H       3.15       9.47       9.76
H       4.81       6.82      22.87
H       5.79       5.94      20.79
H       1.80       5.38      19.18
H       0.85       6.27      21.27
H       3.06       5.71      24.83
H       0.08       8.66      25.34
H       0.85       8.64      22.67
H       2.60       4.92      17.38
H       6.63       4.04      16.48
H       6.53       4.94      19.07
H       7.73       6.92      30.87
H       5.25       7.02      31.03
H       3.80       8.41      26.65
H       4.93       9.18      24.61
H       7.44       9.35      24.56
H       8.74       8.63      26.52
H       0.21       3.35      30.16
H      10.32       1.07      31.17
H       1.74      10.02      27.91
H       2.59      10.26      25.62
H       2.77       0.53      24.57
H       2.06       2.53      25.83
H       0.41       5.19       6.80
H       9.85       6.07       4.71
H       3.42       6.62       3.11
H       4.37       5.73       5.21
H       2.16       6.30       8.76
H       5.13       3.35       9.27
H       4.37       3.37       6.60
H       2.62       7.08       1.31
H       9.01       7.96       0.41
H       9.11       7.07       3.01
C       2.60      10.40       3.28
C       1.93      10.76       2.12
C       0.53      10.73       2.04
C      10.17      10.39       3.14
C       0.39       9.98       4.36
C      10.09       9.57       5.52
C       0.32       9.13       6.66
C       1.72       9.04       6.69
C       2.46       9.44       5.60
C       1.84       9.95       4.42
C       4.09      10.57       3.29
C       8.69      10.45       2.94
C       6.24       3.42       3.80
C       5.73       3.56       2.52
C       5.58       4.83       1.95
C       6.00       5.98       2.61
C       6.59       5.87       3.92
C       7.01       7.00       4.67
C       7.50       6.86       5.96
C       7.61       5.58       6.55
C       7.21       4.46       5.85
C       6.69       4.57       4.53
C       6.23       2.06       4.43
C       5.77       7.30       1.93
C       7.65       0.61      26.02
C       6.26       0.51      26.15
C       5.73      12.00      27.33
C       6.57      11.61      28.38
C       7.96      11.71      28.24
C       8.49       0.22      27.06
C       8.06       0.52      23.57
C       9.61       2.05      23.37
C       9.23       2.05      24.69
C       6.75      10.84      30.73
C       4.64      10.40      31.16
C       4.69      10.84      29.87
C       2.62       1.60      19.35
C       3.28       1.25      18.19
C       4.68       1.27      18.11
C       5.46       1.62      19.20
C       4.82       2.03      20.43
C       5.54       2.44      21.59
C       4.90       2.88      22.73
C       3.49       2.96      22.76
C       2.76       2.57      21.66
C       3.38       2.06      20.49
C       1.13       1.44      19.36
C       6.95       1.56      19.01
C       9.39       8.59      19.88
C       9.89       8.45      18.60
C      10.05       7.17      18.03
C       9.62       6.03      18.70
C       9.04       6.14      20.00
C       8.62       5.01      20.76
C       8.13       5.15      22.04
C       8.02       6.43      22.63
C       8.42       7.55      21.93
C       8.94       7.44      20.61
C       9.41       9.95      20.50
C       9.86       4.71      18.03
C       7.99      11.41       9.95
C       9.37      11.50      10.08
C       9.91       0.01      11.26
C       9.07       0.41      12.31
C       7.67       0.31      12.17
C       7.14      11.80      10.99
C       7.58      11.49       7.50
C       6.03       9.97       7.31
C       6.40       9.97       8.62
C       8.88       1.19      14.66
C       0.57       1.62      15.09
C       0.53       1.18      13.80
C       7.81       4.41      12.78
C       8.48       4.77      13.94
C       9.88       4.74      14.03
C       0.24       4.40      12.93
C      10.02       3.99      11.71
C       0.32       3.58      10.55
C      10.11       3.14       9.41
C       8.70       3.05       9.37
C       7.96       3.44      10.47
C       8.58       3.95      11.65
C       6.32       4.57      12.78
C       1.73       4.46      13.13
C       4.18       9.42      12.26
C       4.69       9.56      13.54
C       4.84      10.84      14.11
C       4.42      11.98      13.44
C       3.83      11.87      12.14
C       3.40       1.01      11.38
C       2.92       0.86      10.10
C       2.82      11.58       9.51
C       3.21      10.46      10.21
C       3.74      10.56      11.53
C       4.20       8.06      11.64
C       4.65       1.31      14.11
C       2.77       6.60      22.19
C       4.16       6.50      22.06
C       4.70       6.01      20.88
C       3.86       5.61      19.83
C       2.47       5.71      19.97
C       1.93       6.21      21.15
C       2.36       6.51      24.64
C       0.81       8.04      24.83
C       1.19       8.04      23.52
C       3.68       4.83      17.48
C       5.79       4.39      17.05
C       5.74       4.83      18.34
C       7.81       7.61      28.85
C       7.14       7.25      30.02
C       5.74       7.28      30.10
C       4.96       7.62      29.00
C       5.60       8.03      27.77
C       4.88       8.44      26.61
C       5.52       8.88      25.47
C       6.93       8.96      25.44
C       7.66       8.57      26.54
C       7.05       8.06      27.72
C       9.31       7.45      28.85
C       3.48       7.56      29.20
C       1.03       2.60      28.34
C       0.52       2.46      29.62
C       0.36       1.18      30.19
C       0.78       0.04      29.52
C       1.37       0.14      28.22
C       1.80      11.00      27.46
C       2.29      11.15      26.18
C       2.39       0.43      25.58
C       2.00       1.55      26.29
C       1.47       1.45      27.61
C       1.01       3.96      27.71
C       0.56      10.71      30.20
C       2.45       5.41       6.12
C       1.06       5.51       5.99
C       0.52       6.00       4.81
C       1.36       6.40       3.76
C       2.75       6.30       3.91
C       3.29       5.80       5.08
C       2.85       5.50       8.57
C       4.40       3.97       8.77
C       4.03       3.97       7.45
C       1.54       7.17       1.41
C       9.85       7.61       0.98
C       9.90       7.17       2.27
N       8.24       1.07      24.80
N       8.87       1.09      22.69
N       6.03      11.11      29.60
N       5.93      10.41      31.68
N       7.39      10.94       8.73
N       6.76      10.92       6.62
N       9.61       0.90      13.53
N       9.71       1.61      15.61
N       2.18       7.07      23.41
N       1.54       7.08      25.52
N       4.40       5.11      18.61
N       4.50       4.40      16.53
N       3.04       4.94       7.34
N       3.67       4.93       9.45
N       0.82       6.90       2.54
N       0.72       7.60       0.46
O       4.68      10.66       4.42
O       4.67      10.67       2.16
O       7.91      10.26       3.94
O       8.25      10.66       1.75
O       6.83       1.12       3.75
O       5.63       1.87       5.51
O       4.69       7.52       1.35
O       6.77       8.13       2.01
O       0.53       1.35      20.49
O       0.54       1.34      18.23
O       7.72       1.75      20.01
O       7.38       1.34      17.82
O       8.81      10.89      19.83
O      10.01      10.14      21.59
O       0.54       4.48      17.47
O       8.86       3.87      18.08
O       5.70       4.58      11.66
O       5.75       4.74      13.91
O       2.50       4.27      12.13
O       2.17       4.67      14.32
O       3.60       7.12      12.31
O       4.80       7.86      10.56
O       5.75       1.54      14.67
O       3.65       2.15      14.06
O       9.92       7.43      27.73
O       9.88       7.28      29.98
O       2.71       7.75      28.19
O       3.04       7.35      30.38
O       1.61       4.89      28.38
O       0.41       4.15      26.63
O       9.89      10.48      30.78
O       1.55       9.87      30.13
