15

H       9.28      11.96       8.27
H       8.53      10.83       7.13
O       8.10      12.80       5.71
O       7.39      13.86       7.60
H       6.39      10.97       8.51
H       7.17      12.16       9.55
H       7.19       9.92      10.59
H       8.05       9.23       9.21
C       7.90      12.87       6.97
C       8.33      11.67       7.80
C       7.35      11.28       8.92
C       7.91      10.15       9.79
C       9.24      10.52      10.42
O       9.38      11.74      10.77
O      10.12       9.60      10.55
