15

C       8.96       5.82       2.48
C       8.53       5.57       3.91
C       9.51       4.72       4.73
O       8.76       6.99       2.01
O       9.47       4.84       1.84
C       8.95       4.41       6.13
C       7.62       3.68       6.06
O       7.48       2.85       5.10
O       6.74       3.95       6.94
H       7.57       5.03       3.84
H       8.33       6.53       4.39
H      10.47       5.23       4.84
H       9.69       3.78       4.20
H       9.67       3.78       6.67
H       8.81       5.33       6.72
