15

H       3.29       5.60       2.94
H       4.05       6.73       4.08
H       6.19       6.59       2.70
H       5.41       5.40       1.66
H       5.39       7.64       0.62
H       4.53       8.34       2.00
C       4.68       4.70       4.24
C       4.25       5.89       3.41
C       5.23       6.28       2.29
C       4.67       7.42       1.42
C       3.34       7.05       0.79
O       4.48       4.77       5.50
O       5.19       3.71       3.61
O       3.19       5.83       0.44
O       2.46       7.96       0.66
