20

C      10.07      15.26      10.17
C       9.34      16.44      10.09
C       8.68      16.93      11.23
C       8.78      16.16      12.40
C       9.52      14.98      12.39
H       6.01      20.28      13.12
H       7.32      18.20      13.30
H       8.29      18.66       9.09
H       6.98      20.77       9.14
N       6.42      20.59      11.12
N      10.17      14.54      11.30
H      10.58      14.85       9.30
H       9.28      16.93       9.12
H       8.30      16.47      13.33
H       9.62      14.36      13.28
C       6.53      19.87      12.25
C       7.25      18.69      12.33
C       7.91      18.20      11.19
C       7.81      18.97      10.02
C       7.07      20.14      10.03
