14

C       3.97      -0.61      15.31
C       1.47      -1.07      12.31
O       2.38      -3.27      13.72
O       3.06       1.59      13.91
O       4.62      -3.04      13.97
O       0.82       1.35      13.66
C       3.22      -1.16      14.14
C       2.22      -0.52      13.49
H       4.98      -0.94      15.50
H       0.46      -0.74      12.12
C       3.43      -2.55      13.89
C       2.01       0.87      13.74
O       3.43       0.13      16.12
O       2.01      -1.82      11.51
