19

H       0.36       6.43       5.93
H       4.77       6.00       3.66
H       0.58       7.03       3.53
H       4.30       5.11       7.37
H       5.60       5.92       6.30
H       5.18       4.37       5.90
C       2.43       5.87       6.19
C       2.69       6.57       3.42
C       3.67       5.76       5.49
C       1.31       6.34       5.43
C       3.81       6.09       4.16
C       1.44       6.68       4.10
C       2.28       5.52       7.58
C       2.83       6.98       2.03
N       4.82       5.26       6.27
O       3.37       5.09       8.24
O       1.15       5.64       8.17
O       4.01       6.88       1.49
O       1.77       7.41       1.42
