19

H       5.57      12.31      14.34
H       9.97      12.75      16.62
H       5.79      11.71      16.74
H       9.51      13.62      12.91
H      10.81      12.83      13.98
H      10.39      14.38      14.37
C       7.64      12.87      14.08
C       7.90      12.18      16.85
C       8.88      12.98      14.78
C       6.52      12.40      14.84
C       9.01      12.66      16.11
C       6.65      12.07      16.17
C       7.50      13.20      12.69
C       8.02      11.79      18.24
N      10.03      13.49      14.01
O       8.59      13.62      12.03
O       6.36      13.08      12.10
O       9.20      11.89      18.79
O       6.97      11.37      18.85
