10

H       9.13       5.52       7.69
H       7.35       5.75       7.67
H       8.06       4.11       7.46
C       6.83       4.14       9.88
C       8.12       4.88       9.51
C       8.16       5.07       7.98
O       9.25       4.17      10.00
O       6.96       3.05      10.54
O       5.73       4.64       9.52
H       8.06       5.86      10.00
