28

C       0.27       2.13       7.67
C      -0.27      -2.13      14.03
C       3.72      -0.09       9.93
C      -3.72       0.09      11.78
C       1.82       1.13      14.03
C      -1.82      -1.13       7.67
C      -1.63       3.35      11.78
C       1.63      -3.35       9.93
Cd      -1.86       1.19       9.29
Cd       1.85      -1.19      12.42
Cd       1.32      -0.85       8.65
Cd      -1.32       0.85      13.06
O       0.61       1.32       8.66
O      -0.61      -1.33      13.05
O       2.63       0.03      10.65
O      -2.63      -0.03      11.05
O       0.95       1.11      13.05
O      -0.95      -1.11       8.66
O      -1.07       2.40      11.05
O       1.06      -2.41      10.65
O      -0.95       2.60       7.71
O       0.95      -2.60      14.00
O       3.55      -0.29       8.65
O      -3.55       0.29      13.06
O       2.76       0.22      14.00
O      -2.76      -0.22       7.71
O      -1.74       3.11      13.06
O       1.74      -3.11       8.65
