11

Zn      14.61       7.45      24.28
O      12.78       6.84      24.45
C      15.63       9.84      22.97
C      14.86       4.91      22.53
N      15.66       7.49      26.05
O      14.73       9.35      23.76
C      16.57       6.27      22.39
C      12.68       5.69      25.11
N      15.42       6.08      23.02
C      15.16       8.02      27.16
C      16.83       6.85      26.38
