23

H      14.97       6.94      13.37
H      14.39       5.32      10.85
H      10.33       3.35      12.27
H      11.26       3.16      14.55
H      15.25       5.13      13.04
H      14.58       8.60       9.29
C      12.74       4.70      14.24
C      13.17       5.71      13.37
C      12.66       5.82      12.10
C      11.12       4.02      12.58
C      11.65       3.91      13.88
C      14.58       6.00      12.93
C      14.02       6.12      11.52
C      11.71       4.91      11.65
C      13.57       4.46      15.41
C      11.33       4.93      10.25
C      14.16       7.50      10.93
O      10.85       3.83       9.74
O      13.57       3.34      16.03
O      14.42       5.35      15.63
O      12.11       5.65       9.51
O      13.98       8.50      11.62
O      14.51       7.63       9.59
