23

H      11.69       9.36      11.04
H      12.09       9.81      13.43
H       8.14       7.38      14.49
H       7.71       7.02      12.19
H       6.43       8.38      12.16
H       5.34       8.80      16.34
C      10.03       9.42      14.02
C       8.74       9.25      13.55
C       8.51       9.05      12.22
C      10.86       9.33      11.74
C      11.09       9.55      13.10
C       7.70       8.27      13.98
C       7.43       8.04      12.51
C       9.58       8.99      11.31
C       9.37       8.28      10.08
C      10.15       9.93      15.36
C       6.55       8.89      14.73
O       9.06      10.19      15.95
O      11.26      10.44      15.71
O      10.35       7.77       9.45
O       8.18       7.97       9.85
O       6.00       9.89      14.30
O       6.13       8.30      15.93
