172

Zn       8.84      -2.53      13.40
Zn      -7.64       3.64      12.97
Zn       1.19      12.50       0.06
Zn       5.64      -0.11       1.48
Zn      11.59       1.58       1.91
Zn       5.70      -3.37      14.82
Zn       0.60      -2.53       8.91
Zn       0.62       3.66       9.35
Zn       3.45       4.58       7.38
Zn       3.41       7.83       5.97
Zn       9.34       9.50       5.53
Zn      -2.54      -3.39       7.50
H       0.04       6.26       2.24
H      -3.90      -1.96      11.29
H      -2.98       2.92      11.51
H      -1.89       3.42       5.85
H       0.01      -6.20      12.63
H       5.16       3.64       3.57
H       9.61       5.85       3.36
H      -6.67       7.03       9.03
H       2.27      -1.67       5.20
H       4.34      -1.97      11.01
H       5.26       2.91      10.80
H      12.34      11.35       1.60
H       3.79       9.68       9.67
H       2.94      11.58       3.85
H      11.85      -2.08       4.07
H       1.57       7.05      13.29
C       1.58       6.26       4.45
C      -2.22       5.07       1.44
C      -0.39       5.65       3.03
C      -1.59       4.98       2.80
C      -2.15       4.17       3.82
C      13.06       3.41       3.59
C      -4.42      -0.09      12.22
C      -5.45      -0.76      13.08
C      -2.45       1.05      10.58
C      -3.69      -0.90      11.34
C      -3.19       1.85      11.46
C      -4.16       1.30      12.29
C      -1.45       1.75       9.71
C      -1.48       4.05       5.06
C       0.28       5.53       4.26
C      -0.25       4.67       5.26
C      -4.94       2.26      13.15
C      -2.73      -0.34      10.49
C      -2.03      -1.27       9.54
C       0.55       4.40       6.51
C      -0.42      -4.73      10.43
C      -4.98       7.18      13.44
C      -4.92       9.09      11.84
C      -5.24       7.75      12.08
C      -5.87       6.99      11.06
C      -6.25       5.56      11.30
C       7.11       3.64       2.65
C       6.75       2.46       1.80
C       7.67       5.85       4.29
C       6.13       4.14       3.52
C       8.64       5.36       3.41
C       8.37       4.27       2.58
C       8.06       7.01       5.15
C      -6.17       7.60       9.82
C      -5.23       9.70      10.61
C      -5.90       8.95       9.61
C       9.51       3.79       1.73
C       6.41       5.21       4.37
C       5.33       5.62       5.33
C      -6.39       9.64       8.36
C      -0.66      14.18       2.99
C       0.01      -2.85       6.00
C       1.83      -2.28       4.41
C      -3.83      12.93       4.64
C      -4.39      12.11       3.62
C      10.82      11.35       3.86
C       3.81      -0.10      10.09
C       2.78      -0.76       9.24
C       5.79       1.04      11.72
C       4.56      -0.91      10.96
C       5.05       1.85      10.85
C       4.08       1.29      10.02
C       6.80       1.74      12.59
C      -3.73      11.98       2.38
C      -1.96      13.45       3.18
C      -2.50      12.61       2.17
C       3.31       2.26       9.17
C       5.51      -0.35      11.81
C       6.20      -1.27      12.77
C      -1.71      12.33       0.93
C       7.83      -4.71      11.89
C       3.25       7.18       8.88
C       3.31       9.10      10.47
C       2.99       7.76      10.24
C       2.36       7.01      11.26
C       1.98       5.58      11.03
C       4.88      11.58       4.78
C       4.52      10.41       5.64
C       5.45      13.79       3.14
C       3.90      12.08       3.90
C       6.42      13.30       4.03
C       6.15      12.22       4.85
C      10.31      -0.92       2.28
C       2.06       7.62      12.50
C       7.47      -6.16      11.70
C       2.33       8.97      12.70
C       7.28      11.73       5.71
C       4.18      13.14       3.05
C       3.10      13.57       2.10
C       6.32      -6.21      13.94
O      -6.19       2.27      12.96
O      -4.25       3.01      13.90
O      -1.43       1.48       8.50
O      -0.75       2.65      10.32
O      13.15       2.39       2.80
O      12.04       3.81       4.18
O      13.00       4.91       1.38
O      -1.42       5.30       0.48
O       1.66       7.09       5.43
O      -6.09      -1.73      12.52
O      -0.77      -1.22       9.53
O      -2.79      -2.05       8.90
O      -0.10       4.22       7.58
O       1.81       4.35       6.34
O      -5.58      -0.37      14.26
O       2.48       6.00       3.63
O       9.88       2.60       1.92
O      10.04       4.67       0.97
O       7.80       6.97       6.37
O       8.74       7.93       4.54
O      -7.26       5.36      12.07
O      -5.58       4.70      10.71
O      -4.82       5.92      13.51
O      -4.97       8.02      14.39
O       0.35      -4.42       9.44
O       5.97       1.60       2.35
O       5.03       6.85       5.34
O       4.81       4.67       6.00
O      -6.39       8.97       7.28
O      -6.79      10.83       8.54
O       7.18       2.44       0.63
O      -0.91      -3.93      11.25
O       2.06       2.29       9.36
O       4.01       3.00       8.41
O       6.83       1.47      13.80
O       7.50       2.64      11.98
O      10.89      10.33       4.64
O       9.80      11.77       3.27
O      -1.25      -3.04       6.07
O       0.81      -2.61       6.96
O       3.89      -0.86       2.00
O       2.15      -1.74       9.79
O       7.46      -1.23      12.78
O       5.43      -2.03      13.43
O      -8.35       4.22      14.72
O      -0.45      12.26       1.10
O       2.64      -0.36       8.06
O       4.70      -1.94       3.82
O       7.63      10.52       5.52
O      12.28      -3.28       6.46
O       5.59      14.89       1.06
O      10.99      -0.00       2.88
O       0.98       5.38      10.24
O       2.64       4.70      11.62
O       3.43       5.92       8.82
O       3.26       8.01       7.92
O       8.61      -4.41      12.87
O       3.75       9.54       5.08
O       7.27      -1.07       2.09
O       2.55      12.62       1.46
O      12.32       1.05       0.14
O       5.93      -5.00      13.77
O       4.92      10.40       6.82
O       7.34      -3.91      11.07
