28

C      -1.15       8.99      12.15
Mn       1.34      10.16      13.81
Mn      -1.35       8.10      14.85
Mn       3.93      12.21      14.81
Mn       6.79      10.16      16.10
C      -1.27      10.74      15.75
C       1.11      13.18      14.25
C       3.77       9.61      15.73
O       2.79      10.60      12.42
O       1.94       8.28      13.87
O       0.25       6.91      14.54
O      -2.06       7.27      16.54
O       4.54      11.98      12.90
O       4.68      13.01      16.49
O      -3.81       8.55      17.18
O       6.34      11.69      17.30
C       1.47       7.15      14.25
O      -0.20       9.75      12.53
O       0.64      12.03      13.92
O       2.84      10.49      15.44
O      -0.35       9.85      15.54
O      -1.94       8.35      12.93
O      -2.46      10.55      15.30
C      -2.97       7.61      17.38
O       2.33      13.43      14.51
O       4.97       9.85      15.32
C       3.77      11.35      12.08
C       5.52      12.68      17.40
