720

C       0.34      16.75       1.19
C       0.37      16.48       3.57
C       0.38      18.67       2.61
C       0.35      51.72       0.58
C       0.38      51.99      64.90
C       0.40      49.81      65.86
C       0.34       0.58      16.75
C       0.37      64.90      16.48
C       0.38      65.86      18.67
C       0.35       1.19      51.72
C       0.38       3.57      51.99
C       0.40       2.61      49.80
C       0.43      18.37      34.54
C       0.40      18.65      36.92
C       0.38      16.46      35.97
C       0.45      50.10      33.94
C       0.42      49.82      31.56
C       0.42      52.01      32.51
C       0.43      34.54      50.10
C       0.40      36.92      49.82
C       0.39      35.97      52.01
C       0.45      33.94      18.37
C       0.42      31.56      18.65
C       0.41      32.51      16.46
C       0.41      10.50      14.28
C       0.43      12.42      12.85
C       0.42      12.69      15.23
C       0.41      57.98      54.20
C       0.44      56.05      55.62
C       0.43      55.78      53.25
C       0.41      54.19      10.50
C       0.44      55.62      12.42
C       0.43      53.25      12.69
C       0.41      14.28      57.98
C       0.44      12.85      56.05
C       0.42      15.23      55.78
C       0.37      24.62      47.63
C       0.34      22.70      46.21
C       0.35      22.42      48.58
C       0.38      43.85      20.84
C       0.35      45.77      22.27
C       0.36      46.05      19.89
C       0.37      47.63      43.85
C       0.35      46.21      45.77
C       0.36      48.58      46.05
C       0.37      20.84      24.62
C       0.34      22.27      22.70
C       0.35      19.89      22.42
C       0.33      30.62       4.34
C       0.40      28.38       5.11
C       0.39      30.17       6.67
C       0.36      37.85      64.13
C       0.43      40.10      63.36
C       0.36      38.30      61.80
C       0.33      64.13      30.62
C       0.40      63.36      28.38
C       0.39      61.80      30.17
C       0.36       4.34      37.85
C       0.42       5.11      40.10
C       0.35       6.67      38.30
C       0.27      24.97       3.87
C       8.91      24.17       3.46
C       9.06      22.76       3.40
C       0.53      22.12       3.73
C       1.63      22.92       4.15
C       1.49      24.33       4.20
C       0.19      26.36       3.87
C       0.60      20.73       3.76
C       0.31      43.50      64.60
C       8.95      44.30      65.00
C       9.09      45.71      65.06
C       0.56      46.35      64.74
C       1.66      45.55      64.33
C       1.53      44.14      64.28
C       0.24      42.11      64.60
C       0.63      47.74      64.71
C       0.27      64.60      24.97
C       8.91      65.01      24.17
C       9.06      65.07      22.76
C       0.53      64.74      22.12
C       1.63      64.33      22.92
C       1.49      64.27      24.33
C       0.19      64.60      26.36
C       0.60      64.71      20.73
C       0.31       3.87      43.50
C       8.95       3.47      44.30
C       9.09       3.41      45.71
C       0.56       3.73      46.35
C       1.66       4.13      45.55
C       1.53       4.19      44.14
C       0.24       3.87      42.11
C       0.63       3.76      47.74
C       0.50      10.26      37.82
C       1.65      11.05      37.62
C       1.52      12.42      37.27
C       0.24      13.03      37.15
C       8.83      12.23      37.33
C       8.97      10.86      37.64
C       0.58       9.02      38.43
C       0.16      14.42      37.13
C       0.54      58.21      30.65
C       1.70      57.42      30.84
C       1.57      56.05      31.19
C       0.30      55.44      31.32
C       8.88      56.24      31.15
C       9.01      57.61      30.83
C       0.62      59.45      30.04
C       0.22      54.06      31.33
C       0.50      37.82      58.21
C       1.65      37.61      57.42
C       1.51      37.27      56.05
C       0.24      37.15      55.44
C       8.83      37.33      56.24
C       8.97      37.65      57.61
C       0.58      38.43      59.45
C       0.16      37.13      54.05
C       0.54      30.65      10.26
C       1.71      30.84      11.05
C       1.57      31.19      12.42
C       0.30      31.32      13.03
C       8.88      31.16      12.23
C       9.02      30.84      10.86
C       0.62      30.04       9.02
C       0.22      31.34      14.42
C       0.52      15.06       6.95
C       1.64      14.85       7.79
C       1.52      14.06       8.96
C       0.29      13.47       9.35
C       8.91      13.69       8.51
C       9.03      14.48       7.33
C       0.56      15.97       5.89
C       0.23      12.63      10.46
C       0.53      53.41      61.52
C       1.65      53.60      60.67
C       1.53      54.40      59.50
C       0.30      55.00      59.13
C       8.92      54.80      59.97
C       9.04      54.01      61.15
C       0.58      52.50      62.58
C       0.23      55.85      58.01
C       0.52      61.52      15.06
C       1.65      60.68      14.85
C       1.53      59.51      14.05
C       0.30      59.12      13.47
C       8.91      59.96      13.69
C       9.03      61.13      14.48
C       0.56      62.58      15.97
C       0.24      58.01      12.63
C       0.53       6.95      53.41
C       1.65       7.80      53.61
C       1.53       8.97      54.40
C       0.30       9.35      55.00
C       8.92       8.50      54.80
C       9.04       7.33      54.00
C       0.58       5.89      52.50
C       0.24      10.46      55.84
C       0.25      20.07      40.30
C       8.86      20.28      41.14
C       8.99      21.07      42.31
C       0.47      21.65      42.70
C       1.61      21.43      41.87
C       1.48      20.64      40.69
C       0.21      19.16      39.24
C       0.54      22.49      43.82
C       0.27      48.40      28.17
C       8.89      48.19      27.34
C       9.01      47.40      26.16
C       0.49      46.82      25.77
C       1.63      47.04      26.60
C       1.50      47.83      27.78
C       0.23      49.31      29.24
C       0.55      45.98      24.65
C       0.26      40.30      48.40
C       8.87      41.13      48.18
C       8.99      42.30      47.39
C       0.48      42.70      46.82
C       1.61      41.88      47.05
C       1.49      40.70      47.84
C       0.22      39.24      49.31
C       0.54      43.82      45.98
C       0.27      28.17      20.07
C       8.88      27.34      20.28
C       9.00      26.16      21.07
C       0.48      25.77      21.65
C       1.62      26.60      21.43
C       1.50      27.78      20.64
C       0.23      29.23      19.16
C       0.54      24.65      22.49
C       0.38      16.11      64.27
C       8.89      15.96      63.58
C       8.89      15.62      62.20
C       0.35      15.43      61.46
C       1.58      15.57      62.16
C       1.57      15.90      63.55
C       0.44      16.77      65.51
C       0.29      15.44      60.06
C       0.39      52.36       4.20
C       8.90      52.52       4.89
C       8.90      52.86       6.27
C       0.36      53.03       7.01
C       1.59      52.89       6.31
C       1.59      52.56       4.93
C       0.46      51.71       2.96
C       0.30      53.03       8.41
C       0.38       4.20      16.11
C       8.90       4.89      15.94
C       8.90       6.27      15.60
C       0.36       7.01      15.43
C       1.58       6.31      15.59
C       1.58       4.92      15.92
C       0.45       2.96      16.76
C       0.30       8.41      15.44
C       0.39      64.27      52.36
C       8.90      63.58      52.52
C       8.90      62.20      52.86
C       0.36      61.47      53.04
C       1.59      62.16      52.89
C       1.59      63.55      52.57
C       0.45      65.51      51.71
C       0.30      60.07      53.04
C       0.39      19.00      30.92
C       1.62      19.15      30.22
C       1.62      19.49      28.84
C       0.42      19.68      28.11
C       8.93      19.54      28.81
C       8.94      19.22      30.19
C       0.33      18.35      32.15
C       0.48      19.68      26.71
C       0.40      49.47      37.56
C       1.63      49.30      38.25
C       1.63      48.97      39.63
C       0.43      48.80      40.37
C       8.94      48.95      39.67
C       8.95      49.27      38.28
C       0.34      50.12      36.32
C       0.48      48.80      41.77
C       0.39      30.92      49.47
C       1.61      30.23      49.30
C       1.61      28.84      48.96
C       0.42      28.11      48.79
C       8.93      28.80      48.95
C       8.93      30.19      49.27
C       0.32      32.15      50.12
C       0.47      26.71      48.79
C       0.41      37.56      19.00
C       1.64      38.26      19.16
C       1.63      39.64      19.51
C       0.43      40.36      19.68
C       8.94      39.66      19.53
C       8.95      38.28      19.21
C       0.35      36.32      18.35
C       0.47      41.76      19.68
C       0.42      15.46      17.62
C       1.63      15.98      18.14
C       1.59      16.98      19.15
C       0.37      17.50      19.65
C       8.90      16.96      19.14
C       8.94      15.95      18.15
C       0.40      14.75      16.42
C       0.39      18.70      20.36
C       0.42      53.01      50.85
C       1.63      52.49      50.32
C       1.59      51.49      49.31
C       0.36      50.97      48.82
C       8.90      51.51      49.34
C       8.94      52.52      50.34
C       0.41      53.72      52.05
C       0.37      49.77      48.11
C       0.41      50.85      15.46
C       1.62      50.32      15.97
C       1.59      49.31      16.97
C       0.37      48.82      17.50
C       8.90      49.34      16.97
C       8.94      50.34      15.96
C       0.39      52.05      14.75
C       0.39      48.11      18.70
C       0.42      17.62      53.01
C       1.63      18.15      52.49
C       1.58      19.16      51.49
C       0.36      19.65      50.98
C       8.89      19.13      51.51
C       8.94      18.14      52.52
C       0.41      16.42      53.72
C       0.37      20.36      49.77
C       0.45      33.43       2.06
C       1.56      34.18       1.58
C       1.42      34.97       0.41
C       0.19      35.05      66.42
C       8.83      34.30       0.18
C       8.97      33.51       1.35
C       0.52      32.72       3.25
C       0.13      35.76      65.23
C       0.45      66.41      33.43
C       1.56       0.18      34.18
C       1.42       1.35      34.97
C       0.19       2.06      35.04
C       8.83       1.58      34.29
C       8.97       0.41      33.50
C       0.52      65.22      32.72
C       0.12       3.24      35.76
H       8.25      22.19       3.13
H       2.29      24.90       4.48
H       9.65      26.81       3.03
H       0.86      20.30       4.62
H       8.27      46.27      65.33
H       2.34      43.58      64.00
H       9.69      41.66      65.44
H       0.89      48.17      63.85
H       8.25      65.34      22.19
H       2.29      63.99      24.90
H       9.65      65.44      26.81
H       0.86      63.85      20.30
H       8.27       3.15      46.27
H       2.34       4.46      43.58
H       9.69       3.03      41.66
H       0.88       4.62      48.17
H       2.36      13.00      37.20
H       8.12      10.31      37.84
H       0.88       9.00      39.38
H       9.64      14.86      37.98
H       2.42      55.48      31.26
H       8.17      58.16      30.64
H       0.87      59.47      29.07
H       9.73      53.61      30.48
H       2.36      37.19      55.47
H       8.12      37.85      58.16
H       0.88      39.38      59.47
H       9.64      37.98      53.61
H       2.42      31.25      12.99
H       8.17      30.65      10.31
H       0.88      29.07       9.00
H       9.73      30.47      14.86
H       2.35      13.90       9.54
H       8.19      14.65       6.77
H       0.79      16.91       6.12
H       9.70      11.68      10.32
H       2.35      54.55      58.91
H       8.21      53.84      61.72
H       0.81      51.56      62.35
H       9.69      56.79      58.15
H       2.36      58.93      13.90
H       8.19      61.70      14.66
H       0.79      62.34      16.91
H       9.70      58.15      11.68
H       2.35       9.56      54.55
H       8.21       6.75      53.84
H       0.81       6.12      51.56
H       9.69      10.32      56.79
H       8.15      21.23      42.89
H       2.32      20.47      40.13
H       9.72      18.22      39.47
H       0.81      23.44      43.68
H       8.17      47.24      25.59
H       2.34      48.01      28.34
H       0.01      50.25      29.00
H       0.83      45.03      24.80
H       8.15      42.87      47.22
H       2.33      40.15      48.03
H       9.74      39.48      50.25
H       0.81      43.68      45.03
H       8.16      25.59      21.23
H       2.34      28.34      20.46
H       0.00      29.00      18.22
H       0.82      24.80      23.44
H       7.99      15.59      61.70
H       2.47      16.07      64.01
H       0.61      17.75      65.47
H       0.15      16.32      59.63
H       8.01      52.90       6.76
H       2.49      52.38       4.47
H       0.63      50.73       3.00
H       0.16      52.15       8.84
H       8.00       6.77      15.56
H       2.48       4.47      16.10
H       0.61       3.00      17.74
H       0.17       8.84      16.32
H       8.01      61.71      52.89
H       2.48      64.01      52.39
H       0.62      65.47      50.72
H       0.17      59.63      52.15
H       2.52      19.52      28.34
H       8.04      19.05      30.65
H       0.17      17.37      32.12
H       0.62      18.80      26.27
H       2.52      48.92      40.13
H       8.05      49.45      37.82
H       0.19      51.10      36.35
H       0.61      49.68      42.20
H       2.51      28.35      48.92
H       8.03      30.65      49.45
H       0.16      32.12      51.10
H       0.61      26.27      49.68
H       2.52      40.13      19.54
H       8.05      37.81      19.03
H       0.21      36.36      17.37
H       0.59      42.20      18.79
H       2.47      17.40      19.46
H       8.06      15.63      17.74
H       0.37      15.30      15.59
H       0.44      19.53      19.82
H       2.47      51.08      48.99
H       8.06      52.83      50.76
H       0.39      53.17      52.89
H       0.39      48.94      48.66
H       2.47      48.99      17.38
H       8.05      50.75      15.65
H       0.35      52.88      15.30
H       0.42      48.65      19.53
H       2.46      19.48      51.07
H       8.06      17.72      52.84
H       0.40      15.59      53.17
H       0.39      19.82      48.94
H       2.23      35.49       0.07
H       8.15      32.99       1.70
H       0.80      33.20       4.07
H       9.60      35.27      64.40
H       2.23       1.69      35.49
H       8.16       0.07      32.98
H       0.80      64.40      33.20
H       9.59       4.07      35.27
N       0.34      15.96       2.30
N       0.39      17.83       3.69
N       0.35      18.11       1.38
N       0.30      16.20      66.67
N       0.37      20.00       2.73
N       0.35      15.67       4.65
N       0.34      52.51      66.17
N       0.40      50.64      64.78
N       0.36      50.37       0.39
N       0.31      52.27       1.81
N       0.39      48.48      65.74
N       0.36      52.80      63.82
N       0.34      66.17      15.96
N       0.38      64.78      17.83
N       0.35       0.39      18.11
N       0.30       1.80      16.20
N       0.36      65.74      19.99
N       0.35      63.82      15.67
N       0.34       2.30      52.51
N       0.40       3.69      50.64
N       0.36       1.38      50.36
N       0.31      66.67      52.27
N       0.39       2.73      48.48
N       0.36       4.65      52.80
N       0.43      19.17      35.65
N       0.38      17.30      37.04
N       0.41      17.02      34.73
N       0.46      18.92      33.31
N       0.41      15.13      36.09
N       0.41      19.46      38.00
N       0.45      49.31      32.82
N       0.41      51.18      31.43
N       0.44      51.45      33.75
N       0.48      49.55      35.17
N       0.44      53.34      32.39
N       0.44      49.02      30.48
N       0.43      35.65      49.31
N       0.39      37.04      51.18
N       0.42      34.73      51.45
N       0.46      33.31      49.55
N       0.41      36.09      53.34
N       0.42      38.00      49.01
N       0.44      32.82      19.17
N       0.41      31.43      17.29
N       0.44      33.75      17.02
N       0.47      35.17      18.92
N       0.44      32.39      15.13
N       0.43      30.48      19.46
N       0.42      11.06      13.03
N       0.44      13.20      13.96
N       0.41      11.34      15.36
N       0.42       9.15      14.39
N       0.43      13.46      16.32
N       0.46      13.04      11.66
N       0.43      57.41      55.44
N       0.44      55.27      54.51
N       0.41      57.14      53.12
N       0.43      59.32      54.08
N       0.43      55.01      52.15
N       0.47      55.43      56.81
N       0.43      55.44      11.06
N       0.44      54.51      13.20
N       0.42      53.11      11.34
N       0.43      54.08       9.15
N       0.43      52.15      13.46
N       0.47      56.81      13.04
N       0.43      13.03      57.41
N       0.44      13.96      55.27
N       0.41      15.36      57.14
N       0.42      14.39      59.32
N       0.42      16.32      55.01
N       0.47      11.66      55.43
N       0.35      24.06      46.39
N       0.34      21.91      47.32
N       0.37      23.78      48.71
N       0.35      25.96      47.75
N       0.35      21.65      49.68
N       0.31      22.08      45.02
N       0.37      44.42      22.08
N       0.35      46.56      21.16
N       0.37      44.69      19.76
N       0.37      42.51      20.73
N       0.36      46.82      18.79
N       0.32      46.39      23.45
N       0.36      46.39      44.42
N       0.34      47.32      46.56
N       0.37      48.71      44.69
N       0.36      47.75      42.51
N       0.36      49.68      46.82
N       0.32      45.02      46.39
N       0.35      22.08      24.05
N       0.34      21.16      21.91
N       0.36      19.76      23.78
N       0.35      20.73      25.96
N       0.35      18.79      21.65
N       0.32      23.45      22.08
N       0.35      29.28       4.10
N       0.42      28.84       6.39
N       0.34      31.05       5.63
N       0.29      31.45       3.30
N       0.37      30.65       7.92
N       0.43      27.06       4.93
N       0.41      39.19      64.37
N       0.40      39.64      62.08
N       0.33      37.43      62.84
N       0.37      37.02      65.17
N       0.32      37.82      60.56
N       0.47      41.42      63.54
N       0.35      64.37      29.28
N       0.42      62.08      28.84
N       0.34      62.84      31.05
N       0.29      65.17      31.45
N       0.37      60.56      30.65
N       0.43      63.54      27.06
N       0.41       4.10      39.19
N       0.40       6.39      39.63
N       0.33       5.63      37.43
N       0.37       3.30      37.02
N       0.32       7.92      37.82
N       0.47       4.93      41.41
N       2.86      22.30       4.48
N       7.68      24.79       3.15
N       2.90      46.18      64.01
N       7.71      43.67      65.31
N       2.86      64.00      22.30
N       7.68      65.32      24.79
N       2.90       4.46      46.18
N       7.71       3.17      43.67
N       7.55      12.84      37.23
N       2.93      10.47      37.81
N       7.60      55.63      31.25
N       2.98      58.01      30.64
N       7.55      37.25      55.63
N       2.93      37.80      58.00
N       7.61      31.26      12.84
N       2.98      30.63      10.47
N       7.66      13.14       8.89
N       2.88      15.44       7.44
N       7.67      55.36      59.61
N       2.89      53.00      61.01
N       7.66      59.58      13.14
N       2.89      61.04      15.44
N       7.67       8.87      55.36
N       2.89       7.46      53.01
N       2.86      21.98      42.25
N       7.62      19.69      40.78
N       2.88      46.50      26.21
N       7.64      48.77      27.70
N       2.87      42.28      46.52
N       7.62      40.76      48.75
N       2.87      26.21      21.98
N       7.64      27.70      19.69
N       2.79      15.45      61.45
N       7.68      16.23      64.26
N       2.80      53.00       7.03
N       7.69      52.27       4.20
N       2.80       7.03      15.48
N       7.68       4.20      16.19
N       2.80      61.44      53.01
N       7.69      64.27      52.26
N       7.72      19.67      28.09
N       2.83      18.88      30.90
N       7.72      48.84      40.38
N       2.85      49.55      37.57
N       7.71      28.08      48.84
N       2.83      30.91      49.55
N       7.72      40.38      19.64
N       2.85      37.58      18.91
N       7.67      17.50      19.59
N       2.86      15.55      17.59
N       7.66      50.96      48.91
N       2.87      52.94      50.85
N       7.67      48.90      17.52
N       2.86      50.86      15.53
N       7.66      19.57      50.97
N       2.86      17.61      52.92
N       7.59      34.37      66.20
N       2.79      34.11       2.27
N       7.59       2.27      34.36
N       2.79      66.20      34.11
O       3.79      22.69       3.73
O       6.76      24.40       3.92
O       7.34      24.56       1.96
O       3.18      22.53       5.67
O       3.82      45.79      64.77
O       6.80      44.06      64.53
O       7.36      43.90      66.49
O       3.23      45.95      62.82
O       3.79      64.75      22.69
O       6.76      64.55      24.40
O       7.33      66.50      24.56
O       3.19      62.81      22.53
O       3.82       3.70      45.79
O       6.80       3.95      44.06
O       7.36       1.99      43.90
O       3.23       5.65      45.95
O       6.86      12.31      36.33
O       3.63      10.53      36.77
O       3.56      11.04      38.75
O       6.92      12.75      38.32
O       6.92      56.15      32.16
O       3.68      57.95      31.68
O       3.60      57.44      29.70
O       6.97      55.71      30.17
O       6.85      36.35      56.16
O       3.62      36.75      57.95
O       3.57      38.73      57.44
O       6.92      38.34      55.72
O       6.92      32.17      12.32
O       3.69      31.67      10.52
O       3.60      29.69      11.03
O       6.97      30.18      12.75
O       6.80      14.03       9.09
O       3.77      14.57       7.25
O       3.28      16.24       8.32
O       7.22      12.35       8.02
O       6.80      54.47      59.42
O       3.78      53.87      61.19
O       3.27      52.20      60.12
O       7.25      56.15      60.48
O       6.80      59.38      14.04
O       3.77      61.23      14.57
O       3.29      60.16      16.24
O       7.22      60.45      12.35
O       6.80       9.06      54.47
O       3.78       7.28      53.87
O       3.27       8.34      52.20
O       7.25       7.99      56.15
O       3.71      21.08      42.45
O       6.74      20.57      40.59
O       7.22      18.89      41.66
O       3.30      22.77      41.38
O       3.73      47.40      26.01
O       6.76      47.90      27.89
O       7.24      49.57      26.82
O       3.32      45.71      27.09
O       3.71      42.48      47.43
O       6.75      40.56      47.87
O       7.20      41.64      49.55
O       3.33      41.41      45.74
O       3.72      26.01      21.07
O       6.76      27.89      20.57
O       7.23      26.82      18.90
O       3.31      27.08      22.76
O       3.51      14.53      61.91
O       6.92      15.23      64.26
O       7.06      17.19      63.74
O       3.45      16.52      61.47
O       3.53      53.91       6.57
O       6.95      53.28       4.19
O       7.06      51.31       4.71
O       3.45      51.92       7.01
O       3.53       6.56      14.57
O       6.94       4.20      15.18
O       7.05       4.72      17.15
O       3.44       7.01      16.56
O       3.52      61.91      53.93
O       6.94      64.27      53.27
O       7.06      63.75      51.30
O       3.45      61.47      51.93
O       7.00      20.59      28.56
O       3.59      19.89      30.91
O       3.45      17.92      30.39
O       7.06      18.60      28.11
O       7.00      47.93      39.92
O       3.59      48.54      37.57
O       3.48      50.51      38.08
O       7.08      49.92      40.36
O       6.98      28.55      47.93
O       3.57      30.92      48.54
O       3.46      30.40      50.51
O       7.07      28.10      49.92
O       7.00      39.91      20.56
O       3.60      37.57      19.92
O       3.48      38.10      17.95
O       7.07      40.35      18.57
O       6.95      16.61      20.12
O       3.59      15.03      18.47
O       3.49      16.50      17.06
O       7.03      18.03      18.65
O       6.93      51.85      48.39
O       3.58      53.46      49.96
O       3.51      51.99      51.38
O       7.03      50.43      49.86
O       6.93      48.38      16.64
O       3.58      49.97      15.00
O       3.50      51.39      16.47
O       7.04      49.85      18.06
O       6.94      20.10      51.86
O       3.59      18.49      53.45
O       3.50      17.08      51.97
O       7.02      18.63      50.44
O       6.68      34.83       0.23
O       3.70      33.65       1.53
O       3.15      35.23       2.70
O       7.24      33.24      65.78
O       6.68       1.54      34.82
O       3.70       0.22      33.66
O       3.15      65.77      35.24
O       7.24       2.70      33.23
