20

H       3.40      10.18      12.60
H       8.31       9.81      13.44
C       6.34       9.31      14.13
C       4.94       9.41      13.91
C       4.47      10.11      12.79
C       5.37      10.73      11.92
C       6.77      10.63      12.16
C       7.24       9.90      13.25
C       6.89       8.61      15.33
C       3.99       8.76      14.90
C       4.86      11.55      10.77
C       7.76      11.27      11.26
O       7.46       9.30      16.22
O       6.73       7.34      15.27
O       4.45       8.69      16.11
O       2.90       8.33      14.48
O       3.76      11.18      10.23
O       5.57      12.57      10.47
O       7.85      10.85      10.06
O       8.52      12.18      11.71
