20

H       4.91      10.65       3.91
H       9.82      11.03       4.75
C       7.85      11.52       5.44
C       6.45      11.43       5.23
C       5.98      10.73       4.10
C       6.88      10.11       3.23
C       8.28      10.21       3.47
C       8.76      10.94       4.56
C       8.40      12.23       6.65
C       5.50      12.08       6.22
C       6.37       9.28       2.08
C       9.27       9.57       2.57
O       8.97      11.54       7.53
O       8.24      13.50       6.58
O       5.96      12.15       7.42
O       4.41      12.51       5.79
O       5.28       9.66       1.55
O       7.08       8.27       1.78
O       9.36       9.99       1.37
O      10.03       8.66       3.02
