20

H       0.77       3.71       4.78
H      -4.14       4.08       3.94
C      -2.17       4.58       3.24
C      -0.77       4.48       3.46
C      -0.30       3.79       4.58
C      -1.20       3.17       5.46
C      -2.60       3.26       5.21
C      -3.07       3.99       4.12
C      -2.72       5.29       2.04
C       0.18       5.13       2.47
C      -0.69       2.34       6.61
C      -3.59       2.62       6.11
O      -3.29       4.60       1.15
O      -2.56       6.55       2.11
O      -0.28       5.21       1.27
O       1.27       5.56       2.90
O       0.41       2.71       7.14
O      -1.40       1.33       6.91
O      -3.67       3.04       7.31
O      -4.35       1.71       5.67
