51

H       0.02      11.33       5.81
H       3.07      10.38       9.15
H       1.72      13.85       6.99
C      -1.21      16.10       7.05
H       0.09      17.46       6.29
C       2.58       9.95       7.25
H       1.78       9.82       5.45
C      -1.36      14.81       7.51
H       3.56      19.12       9.05
H      -2.94      18.20       2.97
C      -3.34      20.02       5.59
H       2.38      17.22       8.44
C       2.87      17.69       7.81
H      -2.99      19.31       7.45
H       3.64      17.65       4.66
C       3.57      18.83       8.17
H      -3.60      20.88       5.86
C       2.46      10.58       8.47
H       1.37      11.91       9.53
C      -3.82      20.68       3.24
C       0.01      16.59       6.58
H      -2.24      16.65       4.55
H       4.81      19.56       5.27
O      -3.72      20.45       2.02
O      -0.46      12.69       7.93
O       5.17      21.13       8.78
H      -2.18      14.51       7.84
O       2.30      16.10       6.05
C       1.08      15.72       6.58
O       3.88       8.63       5.80
O       4.42       8.67       7.97
O      -4.35      21.76       3.65
C      -2.91      18.43       3.86
C       4.30      19.54       7.22
O       5.54      21.49       6.66
O      -2.32      16.92       7.16
C      -0.25      13.97       7.48
C       0.56      11.77       7.70
C      -2.98      19.09       6.55
C       2.90      17.27       6.49
C      -2.58      17.84       6.15
C       5.03      20.79       7.59
C       0.98      14.41       7.01
C      -2.53      17.50       4.81
C       3.72       9.01       6.98
C       1.66      10.24       6.25
C       3.62      17.95       5.54
C       4.32      19.09       5.91
C      -3.34      19.69       4.25
C       1.44      11.49       8.71
C       0.64      11.15       6.48
