51

C       2.91       2.22      13.39
C      -3.62       1.73      15.07
C       2.98       2.87      16.08
C      -0.01       0.37      16.11
C      -2.58      -6.27      16.78
C       3.34       3.80      15.12
C      -2.87       1.47      17.34
C       2.53       1.28      14.34
H       3.60       4.66      15.38
C       3.34       3.47      13.78
H       2.94       1.99      12.50
C      -1.44      -4.73      18.23
H      -3.64       1.44      14.19
C      -0.98      -1.81      16.53
H      -4.81       3.34      14.80
C      -0.56      -4.45      17.23
H      -3.07      -5.84      18.68
H       2.18      -1.71      17.37
H      -2.38       1.00      17.97
O       0.46      -3.53      17.46
H      -1.37      -4.31      19.06
O       3.72       4.23      11.54
O      -5.54       5.27      16.19
H      -0.02      -4.89      15.34
H      -0.09       1.25      15.81
O       4.35       5.54      13.18
H      -3.56       2.90      18.58
O       2.32       0.71      16.69
H       2.99       3.10      16.98
O      -4.42      -7.55      17.50
H       2.24       0.43      14.08
H      -1.72      -2.37      16.52
O      -3.88      -7.59      15.33
H      -1.78      -6.40      14.98
O      -5.17       4.91      18.31
O      -2.30      -0.12      15.57
C       1.21      -0.12      16.58
C      -1.66      -5.98      15.78
C      -1.08      -0.50      16.10
C      -5.03       4.57      17.11
C       0.25      -2.25      17.00
C      -4.32       2.87      15.44
C       3.82       4.46      12.77
C      -0.64      -5.07      16.00
C      -4.30       3.32      16.75
C       1.36      -1.41      17.04
C      -2.46      -5.64      18.00
C      -2.90       1.05      16.02
C       2.58       1.62      15.68
C      -3.72      -7.21      16.51
C      -3.57       2.61      17.70
