128

Ca      10.57      10.37      13.46
Ca       3.73       3.88       7.02
Ca      10.88       3.24      17.26
Ca       3.42      11.01       3.22
Cd       9.19       7.85      15.59
Cd       2.04      13.53       5.35
Cd       5.11       6.40       4.89
Cd      12.26       0.72      15.13
H       5.43      11.33      14.91
H       2.79      11.30      11.51
H       5.48      10.08       1.27
H      11.51       2.95       8.97
H       6.99      13.90       0.05
H       5.22       1.83      19.28
H      10.40       2.59      11.17
H      10.43      12.70      16.53
H       3.25       4.54       0.93
H      11.05       9.71      19.55
H       6.18       4.20      15.81
H       3.28       8.68       6.29
H       3.90      11.67       9.31
H       7.31       0.35      20.43
H       3.87       1.56       3.95
H       7.91       5.30       9.04
H      11.02       5.57      14.19
H       8.12      10.06       4.67
H       9.08      12.43       1.20
H      10.01       6.77      10.19
H       4.30       7.48      10.29
H       6.39       8.95      11.44
H       8.82       4.17      19.21
H       8.87       2.93       5.57
C       8.61       4.65       8.51
C      11.27      13.11      19.81
C      11.33      11.76      20.20
C       3.62       6.51       7.85
C       4.52      10.02      11.34
C      10.73       3.97      12.79
C       8.72      11.31       3.01
C       5.92       2.48      18.75
C      10.31       2.88       7.19
C      11.09       2.92      13.78
C       3.58       3.15       2.55
C      10.36      10.05      16.94
C      10.94      13.45      18.49
C       4.00      11.38      13.30
C       3.21      11.33       6.70
C      10.63       3.34       8.47
C       7.35       9.67      13.83
C      10.77       0.62      18.09
C       5.17      10.95      13.92
C       3.27       3.49       1.22
C       3.54       8.94       7.31
C       3.09      12.38      13.94
C       7.21      11.36       1.10
C       3.79       7.93       8.25
C       3.57      10.28       7.70
C       4.26       2.55      16.89
C       7.87      10.44       3.68
C       4.18       9.62       9.95
C       6.37      10.46       1.77
C       6.95       4.58       6.65
C      10.76       5.32      13.17
C      10.72      11.10      17.94
C      10.69      12.44      17.55
C       7.93       3.79      18.71
C       9.13       3.31       6.56
C      10.04      11.71       3.59
C       7.09       2.90      19.38
C      11.21       1.87       6.55
C       3.94       4.20       3.54
C       8.28       4.19       7.23
C       6.44       3.82      16.80
C      10.42       3.64      11.47
C       4.12       8.28       9.57
C       6.02      10.07      13.25
C       2.97       2.49       0.29
C       3.03       1.15       0.67
C       3.61       1.81       2.93
C       8.52       5.26      16.79
C       5.59       2.94      17.47
C      10.12       4.63      10.53
C       3.88      10.62       9.02
C       9.78       4.23       9.14
C       8.39      11.78       1.73
C       6.69      10.01       3.06
C       7.61       4.25      17.43
C       3.68      10.92      12.01
C      11.03      10.77      19.26
C      10.68       7.75      12.64
C       3.53      13.64       2.39
C       3.36       0.81       1.99
C      10.18       5.98      10.91
C       5.78       9.00       3.69
C      10.51       6.32      12.23
C       5.69       9.60      11.97
O       3.63      13.20      14.76
O       3.68      12.72       1.54
O       7.35       8.92      14.85
O       3.19      11.02       5.46
O       3.55      13.35       3.67
O      11.70      12.39      13.62
O      10.04      12.46       4.61
O      10.62       1.53      18.94
O       1.22      11.26       2.98
O      11.11       3.24      15.02
O       3.47       5.59       8.70
O       4.26       1.79      15.87
O       6.95       5.34       5.63
O       7.98       6.07      15.97
O       5.93       4.13       7.26
O      10.05       8.89      17.37
O      13.08       2.99      17.50
O       4.26       5.37       3.11
O      10.67       1.06       5.73
O       3.96       3.89       4.78
O       6.32       8.18       4.51
O       2.89      12.49       7.13
O       9.75       5.27      17.11
O      10.75       0.90      16.81
O      10.83       8.66      11.78
O       2.60       1.86       6.87
O       4.55       8.99       3.38
O       3.60       6.22       6.57
O      11.41       1.76      13.35
O      10.34      10.37      15.71
O      10.70       8.03      13.91
O       8.38      10.12      13.22
