360

C       0.06      37.25      23.32
C       9.92      38.46      24.02
C       9.91      39.71      23.34
C       0.00      39.70      21.92
C       0.13      38.49      21.20
C       0.16      37.27      21.91
C       9.87      40.94      24.06
C       0.65      41.13      25.23
C       0.66      42.36      25.91
C       9.93      43.47      25.42
C       9.12      43.28      24.27
C       9.10      42.04      23.60
C       0.12      36.00      23.99
C       8.96      35.42      24.54
C       8.96      34.07      24.95
C       0.13      33.28      24.84
C       1.31      33.89      24.36
C       1.30      35.23      23.93
C       0.20      38.47      19.78
C       1.21      37.74      19.12
C       1.17      37.54      17.73
C       0.10      38.06      16.96
C       9.13      38.85      17.60
C       9.18      39.06      18.99
C       0.06      32.27       9.26
C       9.92      32.26       7.85
C       9.91      31.05       7.12
C       0.01      29.83       7.84
C       0.13      29.81       9.24
C       0.16      31.04       9.94
C       9.88      31.06       5.69
C       0.65      31.98       4.94
C       0.66      31.95       3.54
C       9.93      30.98       2.82
C       9.13      30.08       3.56
C       9.11      30.11       4.97
C       0.12      33.47      10.00
C       8.95      34.23      10.24
C       8.95      35.26      11.20
C       0.12      35.57      11.94
C       1.30      34.85      11.64
C       1.30      33.81      10.70
C       0.21      28.59       9.97
C       1.22      28.38      10.93
C       1.18      27.28      11.80
C       0.12      26.35      11.73
C       9.14      26.51      10.72
C       9.19      27.61       9.85
C       0.06      22.58      20.60
C       9.92      21.37      21.30
C       9.91      21.33      22.72
C       0.00      22.56      23.42
C       0.13      23.79      22.74
C       0.17      23.78      21.33
C       9.87      20.09      23.43
C       0.65      18.98      23.00
C       0.66      17.78      23.73
C       9.93      17.65      24.93
C       9.12      18.74      25.34
C       9.10      19.94      24.61
C       0.12      22.62      19.18
C       8.96      22.43      18.41
C       8.96      22.75      17.04
C       0.13      23.24      16.40
C       1.31      23.36      17.18
C       1.30      23.07      18.55
C       0.20      25.03      23.43
C       1.22      25.97      23.13
C       1.18      27.27      23.65
C       0.11      27.68      24.49
C       9.13      26.73      24.85
C       9.18      25.42      24.33
C       0.09      -6.68      29.96
C       9.94      -7.92      29.30
C       9.91      -9.13      30.04
C       9.98      -9.07      31.45
C       0.11      -7.84      32.13
C       0.17      -6.65      31.36
C       9.86     -10.38      29.37
C       8.91     -10.64      28.35
C       8.88     -11.89      27.70
C       9.81     -12.91      28.02
C       0.77     -12.63      29.02
C       0.79     -11.40      29.69
C       0.16      -5.45      29.24
C       9.00      -4.89      28.67
C       9.00      -3.55      28.24
C       0.16      -2.74      28.35
C       1.34      -3.34      28.85
C       1.34      -4.68      29.31
C       0.17      -7.77      33.55
C       1.19      -7.02      34.19
C       1.16      -6.80      35.57
C       0.10      -7.29      36.36
C       9.11      -8.09      35.74
C       9.15      -8.33      34.35
C       0.08      -1.42      43.98
C       9.94      -1.37      45.38
C       9.90      -0.13      46.06
C       9.97       1.07      45.30
C       0.10       1.04      43.90
C       0.16      -0.21      43.25
C       9.86      -0.08      47.48
C       8.91      -0.83      48.22
C       8.88      -0.77      49.62
C       9.81       0.01      50.35
C       0.77       0.75      49.61
C       0.79       0.71      48.20
C       0.16      -2.65      43.28
C       8.99      -3.42      43.07
C       9.00      -4.47      42.12
C       0.16      -4.78      41.37
C       1.34      -4.04      41.64
C       1.33      -2.98      42.57
C       0.16       2.24      43.13
C       1.18       2.42      42.16
C       1.14       3.50      41.27
C       0.08       4.44      41.31
C       9.10       4.30      42.32
C       9.14       3.21      43.22
C       0.08       8.09      32.42
C       9.93       9.27      31.67
C       9.90       9.24      30.25
C       9.97       7.99      29.60
C       0.11       6.79      30.32
C       0.16       6.85      31.73
C       9.86      10.45      29.50
C       8.91      11.46      29.78
C       8.88      12.65      29.03
C       9.81      12.89      27.99
C       0.77      11.88      27.73
C       0.79      10.68      28.46
C       0.15       8.09      33.83
C       8.99       8.30      34.60
C       8.99       8.00      35.98
C       0.15       7.51      36.63
C       1.33       7.37      35.85
C       1.33       7.65      34.47
C       0.17       5.52      29.67
C       1.18       4.60      30.00
C       1.15       3.28      29.50
C       0.09       2.85      28.67
C       9.10       3.79      28.29
C       9.15       5.11      28.78
C       9.96      44.73      26.07
C       8.66     -14.80      26.84
C       9.82     -14.17      27.35
C       1.14      45.37      26.57
C       2.41      44.88      26.39
C       3.59      44.30      24.48
C       9.97      30.91       1.40
C       8.66      -0.06      52.57
C       9.82       0.06      51.77
C       1.14      31.03       0.60
C       2.42      31.11       1.11
C       3.62      29.76       2.54
C       9.96      16.45      25.70
C       8.66      14.85      26.93
C       9.82      14.09      27.23
C       1.13      15.70      26.00
C       2.41      16.10      25.67
C       3.62      18.02      26.11
C       9.97      37.65      15.60
C       1.15      37.16      13.57
C       0.06      36.43      13.07
C       8.83      36.98      15.08
C       7.68      36.73      15.81
C       5.57      37.67      15.79
C       9.98      25.38      12.77
C       1.17      23.87      14.20
C       0.07      23.80      15.09
C       8.84      25.25      13.60
C       7.69      26.01      13.46
C       5.58      25.53      12.65
C       9.98      29.06      24.81
C       1.17      31.06      25.39
C       0.07      31.86      25.02
C       8.84      29.85      24.50
C       7.69      29.34      23.93
C       5.57      28.92      24.75
C       9.98      -6.87      37.71
C       1.19      -6.36      39.72
C       0.09      -5.64      40.24
C       8.84      -6.20      38.25
C       7.68      -5.97      37.54
C       5.57      -6.89      37.63
C       9.96       5.40      40.27
C       1.17       6.88      38.83
C       0.08       6.96      37.94
C       8.83       5.53      39.43
C       7.67       4.79      39.58
C       5.56       5.33      40.35
C       9.97       1.47      28.36
C       1.18      -0.52      27.79
C       0.09      -1.33      28.17
C       8.83       0.68      28.67
C       7.68       1.17      29.24
C       5.57       1.57      28.38
H       8.08      33.66      25.26
H       8.07      35.94      24.54
H       2.16      33.35      24.20
H       2.15      35.61      23.50
H       1.96      37.29      19.65
H       1.88      36.93      17.30
H       8.41      39.57      19.44
H       8.34      39.24      17.07
H       8.51      41.95      22.77
H       8.57      44.05      23.89
H       1.22      42.44      26.76
H       1.24      40.37      25.59
H       9.84      38.44      25.04
H       0.23      36.39      21.40
H       0.03      40.58      21.41
H       8.06      35.73      11.40
H       8.06      33.97       9.79
H       2.15      34.99      12.19
H       2.14      33.24      10.58
H       1.96      29.08      11.06
H       1.89      27.21      12.54
H       8.42      27.74       9.18
H       8.36      25.85      10.65
H       8.52      29.44       5.46
H       8.58      29.36       3.08
H       1.22      32.65       3.04
H       1.24      32.67       5.42
H       9.84      33.16       7.37
H       0.23      31.04      10.96
H       0.04      28.94       7.33
H       8.08      22.68      16.52
H       8.08      22.17      18.85
H       2.16      23.78      16.78
H       2.15      23.26      19.10
H       1.97      25.73      22.47
H       1.89      27.94      23.34
H       8.41      24.78      24.55
H       8.35      26.99      25.45
H       8.51      20.70      24.94
H       8.57      18.68      26.20
H       1.22      17.00      23.37
H       1.24      19.05      22.17
H       9.84      20.49      20.77
H       0.24      24.67      20.82
H       0.03      22.57      24.44
H       8.12      -3.15      27.91
H       8.12      -5.41      28.67
H       2.18      -2.79      29.02
H       2.18      -5.04      29.76
H       1.94      -6.60      33.64
H       1.88      -6.19      35.98
H       8.38      -8.85      33.92
H       8.33      -8.47      36.28
H       1.51     -11.24      30.40
H       1.46     -13.34      29.29
H       8.19     -12.03      26.96
H       8.22      -9.93      28.09
H       9.92      -7.94      28.28
H       0.25      -5.75      31.84
H       9.94      -9.93      32.00
H       8.12      -4.95      41.93
H       8.11      -3.17      43.52
H       2.18      -4.17      41.08
H       2.18      -2.41      42.67
H       1.93       1.73      42.06
H       1.86       3.56      40.54
H       8.37       3.10      43.89
H       8.32       4.95      42.38
H       1.51       1.25      47.71
H       1.46       1.34      50.08
H       8.19      -1.35      50.11
H       8.22      -1.41      47.73
H       9.92      -2.24      45.91
H       0.24      -0.25      42.23
H       9.93       1.97      45.78
H       8.10       8.09      36.49
H       8.11       8.57      34.15
H       2.17       6.96      36.25
H       2.17       7.44      33.93
H       1.93       4.86      30.64
H       1.86       2.62      29.82
H       8.38       5.75      28.54
H       8.32       3.52      27.69
H       1.51       9.99      28.24
H       1.46      12.00      26.98
H       8.19      13.36      29.28
H       8.22      11.33      30.52
H       9.91      10.17      32.16
H       0.24       5.99      32.28
H       9.94       7.95      28.57
H       7.73     -14.40      26.95
H       4.10      44.77      23.64
H       2.81      43.65      24.09
H       4.33      43.71      25.03
H       7.73      -0.17      52.17
H       4.10      28.78       2.56
H       2.87      29.78       3.34
H       4.39      30.51       2.74
H       7.73      14.55      27.23
H       4.14      18.51      26.94
H       2.84      18.70      25.76
H       4.35      17.84      25.31
H       2.04      37.22      13.06
H       4.66      37.67      15.19
H       5.94      38.70      15.85
H       5.31      37.32      16.79
H       2.05      23.40      14.41
H       4.67      25.01      12.95
H       5.95      25.07      11.73
H       5.32      26.58      12.47
H       2.05      31.47      25.70
H       4.67      29.45      25.07
H       5.93      28.33      25.60
H       5.30      28.24      23.94
H       2.08      -6.42      40.22
H       4.66      -6.86      38.24
H       5.93      -7.92      37.63
H       5.30      -6.60      36.61
H       2.06       7.34      38.62
H       4.66       5.85      40.03
H       5.94       5.82      41.25
H       5.29       4.30      40.59
H       2.07      -0.93      27.50
H       4.66       1.04      28.09
H       5.94       2.12      27.51
H       5.30       2.29      29.17
N       8.78      45.39      26.24
N       1.00     -14.82      27.17
N       8.79      30.73       0.74
N       1.00       0.24      52.43
N       8.78      15.97      26.18
N       1.00      14.58      26.75
N       1.08      37.70      14.81
N       8.95      36.38      13.86
N       1.09      24.67      13.12
N       8.96      24.50      14.73
N       1.09      29.72      25.24
N       8.96      31.20      24.59
N       1.10      -6.91      38.49
N       8.97      -5.60      39.46
N       1.08       6.09      39.92
N       8.96       6.27      38.30
N       1.09       0.82      27.94
N       8.97      -0.68      28.59
O       3.12      44.83      27.38
O       3.04      45.35      25.30
O       3.11      32.01       0.65
O       3.03      29.93       1.25
O       3.08      15.26      25.09
O       3.06      16.79      26.61
O       7.76      35.79      16.59
O       6.52      36.80      15.15
O       7.77      27.15      13.89
O       6.53      25.40      13.72
O       7.77      29.14      22.72
O       6.54      29.89      24.33
O       7.77      -5.05      36.72
O       6.53      -5.99      38.21
O       7.74       3.63      39.18
O       6.52       5.40      39.28
O       7.74       1.40      30.44
O       6.53       0.61      28.85
