24

Cd       4.02      12.60       0.53
Cd      10.77      14.03      -0.53
Cd       7.39      13.32       0.00
Cd       0.64      13.32       0.00
C      10.10      11.29      -0.88
C      -0.73      15.99      -0.83
C      -2.06      13.58       2.19
C       8.76      14.88      -2.33
O       5.48      14.45       0.32
O       3.17      10.43       0.41
O       1.64      11.84       1.25
O       2.56      13.34      -1.18
O       4.86      12.10       2.65
O       6.39      11.70       1.06
O       9.31      12.18      -0.32
O      11.62      16.20      -0.41
O      -0.36      14.80      -1.25
O      -1.28      13.30       1.18
O       9.93      14.54      -2.65
O       8.40      14.93      -1.06
C       4.69      15.35       0.88
C       2.00      10.64       0.83
C       3.34      13.05      -2.19
C       6.03      11.76       2.33
