66

H       5.11       0.06       1.67
H       3.63       0.62       0.93
H       6.36      -4.61       1.64
H       5.27      -5.85       1.06
H       0.49      -2.78      -0.82
H       0.90      -4.48      -0.80
H       6.19      -3.10       3.06
H       5.24      -1.71       3.56
H       6.40      -1.54       2.25
H       3.97      -5.90      -0.80
H       2.22      -5.78      -0.66
H       3.18      -6.35       0.72
H       1.70      -0.85      -1.35
H       2.11       0.25      -0.02
H       0.76      -0.87       0.14
H       5.43       0.87       3.62
H       4.62       1.68       5.83
H       0.62       0.44       4.71
H       1.55      -0.37       2.53
H       7.22      -5.46       3.46
H       6.98      -6.45       5.75
H       2.70      -6.54       5.16
H       3.03      -5.44       2.94
H       3.73      -3.65      -2.15
H       4.24      -3.73      -4.57
H       0.01      -3.24      -5.39
H      -0.39      -3.19      -2.93
C       3.75      -1.53       1.19
C       4.57      -2.56       1.69
C       4.38      -3.89       1.26
C       3.32      -4.20       0.38
C       2.46      -3.18      -0.07
C       2.69      -1.83       0.31
C       4.03      -0.11       1.64
C       5.33      -4.97       1.72
C       1.31      -3.48      -1.00
C       5.66      -2.22       2.68
C       3.16      -5.63      -0.11
C       1.78      -0.77      -0.26
C       4.39       0.77       3.92
C       3.93       1.21       5.13
C       2.55       1.11       5.47
C       1.69       0.53       4.49
C       2.17       0.09       3.29
C       2.04       1.66       6.71
C       6.25      -5.69       3.89
C       6.10      -6.24       5.14
C       4.82      -6.57       5.65
C       3.70      -6.29       4.81
C       3.86      -5.72       3.58
C       4.68      -7.23       6.95
C       2.95      -3.57      -2.90
C       3.21      -3.60      -4.25
C       2.17      -3.45      -5.21
C       0.85      -3.33      -4.70
C       0.60      -3.30      -3.35
C       2.44      -3.39      -6.64
N       3.53       0.19       2.99
N       5.13      -5.38       3.11
N       1.66      -3.37      -2.43
O       0.77       1.62       6.95
O       2.85       2.25       7.52
O       3.53      -7.70       7.27
O       5.75      -7.32       7.66
O       3.68      -3.33      -7.02
O       1.47      -3.39      -7.47
