18

O      -1.39      14.39       0.13
H      -2.80      14.90      -3.55
O      -1.39      15.71      -1.73
C      -2.73      13.76      -1.71
C      -1.77      14.70      -1.05
O      -3.81      10.19       0.13
O      -4.95      12.33      -5.70
C      -4.35      11.90      -3.03
C      -3.94      11.67      -1.71
C      -3.13      12.60      -1.05
C      -3.94      13.07      -3.69
C      -4.27      13.26      -5.14
O      -4.95       9.53      -1.73
O      -3.81      14.31      -5.70
C      -4.27      10.37      -1.05
H      -2.80      12.41      -0.03
H      -4.96      11.17      -3.55
C      -3.13      14.00      -3.03
