11

O       8.37      15.71       6.15
C       9.37      14.89       5.89
Co       7.57      16.96       4.91
C       4.57      17.30       5.09
C       6.68      16.68       2.06
C       6.65      14.78       3.40
C       9.35      19.00       5.43
N       5.71      16.92       5.72
N       7.05      16.06       3.21
C       5.63      16.55       7.02
O       8.06      18.71       5.43
