54

Zr      -1.70       1.17       1.50
Zr       1.84       1.19       1.51
Zr       0.07       2.15      -1.40
Zr      -1.71      -0.90      -1.36
Zr       0.06      -1.89       1.55
Zr       1.82      -0.90      -1.34
H       0.06       3.36       1.18
H       0.07       0.11      -3.33
H      -2.73      -1.45       1.22
H       2.85      -1.45       1.24
C       0.05       2.68       3.81
C       2.36       4.03      -0.03
C      -2.28       3.99      -0.02
C      -2.27       1.48      -3.55
C      -2.14      -1.08       3.80
C       2.21      -3.81       0.06
C       0.07      -2.57      -3.52
C      -2.12      -3.80       0.05
C       4.55       0.23      -0.02
C       2.40       1.44      -3.55
C      -4.45       0.24      -0.03
C       2.23      -1.05       3.83
O       0.06       2.45       0.86
O       0.06       0.11      -2.36
O      -1.94      -1.00       0.90
O       2.05      -1.00       0.91
O       1.53       0.98      -0.53
O      -1.40       0.98      -0.54
O       0.07       0.16       1.87
O       0.06      -1.57      -0.50
O      -1.08       2.36       3.28
O       2.62       3.21       0.92
O      -1.42       3.77      -0.95
O      -2.53       0.33      -3.05
O      -1.30      -1.91       3.30
O       1.41      -3.59       1.04
O       1.22      -2.20      -3.08
O      -2.42      -2.94      -0.86
O       3.96      -0.51      -0.88
O       2.61       0.25      -3.08
O      -3.87      -0.50      -0.90
O       1.38      -1.88       3.35
O      -3.83       0.89       0.89
O       2.56       0.07       3.30
O       1.53       2.25      -3.09
O       2.50      -2.97      -0.86
O      -1.06      -2.20      -3.06
O      -1.29      -3.61       1.00
O       1.19       2.40       3.29
O       1.44       3.84      -0.92
O      -1.33       2.26      -3.13
O      -2.44       0.07       3.31
O       3.97       0.89       0.92
O      -2.51       3.19       0.97
