10

Cu       8.78      12.92       9.73
N       8.30      10.89      10.10
O       7.62      13.37      11.12
C       7.55      14.55      11.69
C       8.61       9.98       8.95
C       9.14      10.47      11.29
O       9.83      12.72       8.11
O      11.10      12.80       9.94
C      11.00      12.63       8.70
C       6.87      10.73      10.48
