10

Cu       6.93       1.48       4.24
N       7.42       3.51       3.86
C       8.17      -0.15       2.28
C       7.11       4.42       5.02
C       6.58       3.93       2.68
O       8.09       1.03       2.84
C       4.72       1.78       5.26
O       5.88       1.68       5.86
O       4.62       1.61       4.02
C       8.85       3.68       3.49
