22

C       4.26       3.05      15.98
O       5.18      -0.78      15.53
O       7.89       3.54      12.63
O       9.22       1.67      12.51
O       7.45      -0.55      12.60
O       6.49       1.62      14.03
O       4.13       1.87      15.44
O       5.08       3.95      15.57
O       7.89       3.52      15.46
O       9.22       1.66      15.55
C       8.42       2.51      16.14
O       7.46      -0.57      15.42
O       5.18      -0.76      12.48
O       4.13       1.89      12.62
O       5.08       3.97      12.53
C       6.36      -0.97      16.00
C       4.29       3.06      12.08
C       8.81       2.82      12.07
C       6.37      -0.99      12.04
Cr       4.73       0.61      14.02
Cr       6.50       3.66      14.05
Cr       8.25       0.58      14.02
