22

C      11.93       7.51       2.73
O      14.80       4.81       3.18
O       9.71       4.60       6.08
O      10.67       2.52       6.21
O      13.48       2.95       6.12
O      12.07       4.86       4.68
O      13.02       7.03       3.27
O      10.74       7.24       3.14
O       9.72       4.59       3.25
O      10.69       2.51       3.16
O      13.49       2.94       3.29
C      10.34       3.63       2.57
O      14.79       4.82       6.23
O      13.00       7.04       6.10
O      10.73       7.25       6.19
C      14.38       3.69       2.71
C      11.91       7.49       6.63
C       9.88       3.44       6.64
C      14.39       3.68       6.67
Cr      13.82       5.90       4.69
Cr      10.29       5.86       4.66
Cr      12.10       2.82       4.69
