462

C      -2.60      18.40      11.04
C      -1.78      19.55      11.05
C      -0.28      18.49      12.82
C      -1.09      17.33      12.83
C      -0.77      16.27      13.71
C       0.32      16.32      14.59
C       1.13      17.48      14.57
C       0.84      18.54      13.70
C      -2.10      20.62      10.18
C      -3.21      20.55       9.30
C      -4.03      19.40       9.29
C      -3.71      18.35      10.16
C      -2.03      16.06      11.01
C      -2.86      14.91      11.01
C      -4.30      15.93      12.86
C      -3.49      17.09      12.86
C      -5.38      15.86      13.77
C      -5.68      16.92      14.65
C      -4.90      18.09      14.64
C      -3.80      18.15      13.75
C      -0.93      16.12      10.12
C      -0.61      15.06       9.24
C      -1.47      13.94       9.22
C      -2.57      13.86      10.11
C      -2.30      17.22      11.94
C      -4.02      14.79      11.94
C      -0.58      19.65      11.94
C      21.01       0.16      12.86
C      20.19      -0.99      12.86
C      18.74       0.03      11.02
C      19.56       1.19      11.01
C      19.24       2.26      10.14
C      18.13       2.21       9.27
C      17.32       1.05       9.28
C      17.63      -0.02      10.13
C      20.51      -2.06      13.74
C      21.63      -1.99      14.60
C      22.45      -0.85      14.60
C      22.13       0.21      13.74
C      21.95       1.43      11.04
C      22.77       2.59      11.05
C      21.26       3.65      12.82
C      20.44       2.50      12.83
C      20.92       4.74      13.66
C      19.79       4.68      14.51
C      18.99       3.52      14.56
C      19.32       2.46      13.70
C      22.29       0.36      10.18
C      23.40       0.41       9.31
C      24.22       1.55       9.36
C      23.91       2.63      10.21
C      20.74       1.32      11.94
C      22.46       3.75      11.94
C      19.02      -1.11      11.94
C      20.26      13.56       6.29
C      21.08      12.98       7.29
C      22.58      11.97       5.48
C      21.76      12.55       4.47
C      22.09      12.32       3.11
C      23.18      11.53       2.72
C      23.99      10.97       3.73
C      23.70      11.19       5.09
C      20.76      13.20       8.65
C      19.65      14.00       9.02
C      18.83      14.58       8.03
C      19.14      14.35       6.68
C      20.83      14.76       4.28
C      20.00      15.33       3.28
C      18.56      13.22       3.24
C      19.37      12.64       4.25
C      17.48      12.48       2.72
C      17.18      11.18       3.20
C      17.96      10.60       4.23
C      19.06      11.34       4.72
C      21.93      15.50       4.78
C      22.24      16.80       4.30
C      21.39      17.37       3.34
C      20.29      16.64       2.83
C      20.56      13.38       4.82
C      18.84      14.59       2.72
C      22.28      12.16       6.93
C      -1.85       4.95      17.58
C      -2.67       5.53      16.59
C      -4.12       6.61      18.39
C      -3.30       6.03      19.40
C      -3.62       6.26      20.76
C      -4.73       7.03      21.15
C      -5.53       7.60      20.15
C      -5.22       7.40      18.79
C      -2.35       5.29      15.22
C      -1.23       4.52      14.85
C      -0.41       3.94      15.84
C      -0.73       4.16      17.19
C      -0.91       5.88      19.59
C      -0.09       5.29      20.59
C      -1.60       3.23      20.63
C      -2.42       3.80      19.62
C      -1.94       1.96      21.15
C      -3.06       1.25      20.67
C      -3.87       1.79      19.64
C      -3.54       3.07      19.15
C      -0.57       7.17      19.10
C       0.54       7.90      19.57
C       1.36       7.28      20.53
C       1.05       6.01      21.04
C      -2.12       5.17      19.05
C      -0.40       3.95      21.15
C      -3.84       6.38      16.94
C       8.83      20.10       4.48
C       9.65      19.53       3.48
C      11.15      21.59       3.51
C      10.34      22.18       4.51
C      10.66      23.47       4.99
C      11.75      24.21       4.51
C      12.56      23.62       3.51
C      12.27      22.32       3.03
C       9.33      18.24       2.99
C       8.22      17.52       3.49
C       7.40      18.08       4.49
C       7.72      19.36       4.96
C       9.40      21.24       6.52
C       8.57      21.82       7.51
C       7.13      22.91       5.71
C       7.94      22.32       4.70
C       6.05      23.73       5.32
C       5.75      23.96       3.96
C       6.53      23.36       2.95
C       7.63      22.57       3.34
C      10.50      20.44       6.91
C      10.82      20.20       8.27
C       9.96      20.75       9.25
C       8.86      21.56       8.87
C       9.13      21.46       5.05
C       7.41      22.68       7.16
C      10.85      20.24       2.94
C       9.58      -1.54      19.36
C       8.76      -0.96      20.37
C       7.31      -3.07      20.40
C       8.13      -3.65      19.39
C       7.80      -4.95      18.91
C       6.70      -5.67      19.38
C       5.90      -5.09      20.38
C       6.21      -3.81      20.89
C       9.08       0.33      20.85
C      10.20       1.04      20.36
C      11.02       0.48      19.36
C      10.70      -0.80      18.88
C      10.52      -3.75      19.17
C      11.34      -4.31      18.16
C       9.83      -3.32      16.36
C       9.01      -2.73      17.36
C       9.49      -3.13      15.00
C       8.36      -2.37      14.62
C       7.56      -1.74      15.60
C       7.89      -1.96      16.96
C      10.86      -3.96      20.54
C      11.97      -4.73      20.93
C      12.79      -5.26      19.91
C      12.48      -5.06      18.55
C       9.31      -2.92      18.82
C      11.03      -4.13      16.72
C       7.59      -1.70      20.93
C       5.66      -8.63      16.51
C       5.70      -8.83      17.92
C       5.87     -10.17      18.36
C      -5.44      21.35      16.13
C       5.44      -7.33      15.82
C      -5.22      20.36      15.19
C       5.63      -7.80      18.85
C      15.11       1.28      18.51
C      14.04       2.21      18.36
C      14.25       3.27      17.45
C      16.42       2.46      16.88
C      15.13       0.12      19.43
C      17.57       2.48      16.13
C      12.82       2.09      19.01
C      11.15      28.33       5.37
C      12.38      27.63       5.52
C      13.31      28.18       6.42
C      23.26      -2.38       6.99
C      10.05      27.96       4.44
C      22.89      -1.28       7.75
C      12.67      26.44       4.86
C       4.96      16.11       7.36
C       4.75      16.09       5.96
C       3.44      15.80       5.51
C       2.64      15.65       7.75
C       6.25      16.34       8.05
C       1.63      15.52       8.68
C       5.75      16.36       5.03
C      17.09       6.18       8.15
C      17.13       5.06       7.27
C      17.30       5.34       5.89
C      17.42       7.68       6.31
C      16.88       6.13       9.61
C      17.64       8.99       5.91
C      17.06       3.74       7.70
C      -7.75      -0.50      15.73
C      -8.82      -0.84      16.61
C      -8.61      -0.59      17.98
C      -6.44       0.31      17.57
C      -7.73      -0.72      14.26
C      -5.29       0.96      17.96
C      24.25      -1.34      16.18
C      -0.28      13.52      17.72
C       0.95      13.74      17.04
C       1.88      12.67      17.07
C       0.40      11.29      18.32
C      -1.38      14.50      17.87
C       0.03      10.09      18.89
C       1.25      14.90      16.34
C      -6.47      17.89       6.15
C      -6.68      19.13       6.83
C      -7.99      19.65       6.80
C      -8.79      17.80       5.55
C      -5.18      17.18       6.00
C      24.48      17.05       4.98
C      -5.68      19.79       7.53
C      -5.77       6.02      25.15
C      -5.73       7.34      24.62
C      -5.56       8.39      25.56
C      -5.44       6.86      27.37
C      -5.98       4.77      24.38
C       6.21      22.71       0.71
C      -5.80       7.63      23.27
C       3.68       2.79      15.58
C       2.61       2.20      14.85
C       2.82       0.88      14.37
C       4.99       0.79      15.36
C       3.70       4.17      16.12
C       6.14       0.13      15.72
C       1.39       2.82      14.62
C      11.15      -5.94      26.72
C      12.38      -5.47      27.25
C      13.31      -4.96      26.31
C      11.83      -5.35      24.49
C      10.04      -6.56      27.49
C      11.46      -5.25      23.17
C      24.10      10.73       0.61
C      16.39      18.05       8.30
C      16.18      16.85       9.03
C      14.87      16.61       9.50
C      14.07      18.62       8.51
C      17.68      18.54       7.75
C      13.06      19.49       8.15
C      17.18      15.91       9.25
H      -1.28      13.16       8.59
H      -3.16      13.03      10.08
H      -5.97      15.02      13.79
H      -6.47      16.83      15.29
H      -3.21      18.99      13.77
H      -0.34      16.96      10.11
H      -1.37      15.44      13.73
H       1.92      17.56      15.21
H       1.43      19.37      13.72
H      -4.30      17.50      10.15
H      -1.52      21.46      10.16
H      -3.39      21.32       8.66
H      -4.92      14.64      11.33
H      -3.87      13.90      12.55
H      -0.72      20.53      12.57
H       0.29      19.82      11.30
H      25.05       1.61       8.76
H      24.51       3.45      10.21
H      21.49       5.59      13.66
H      19.58       5.48      15.11
H      18.72       1.63      13.70
H      21.71      -0.49      10.18
H      19.81       3.11      10.15
H      16.50       1.00       8.68
H      17.03      -0.85      10.13
H      22.73       1.04      13.73
H      19.93      -2.90      13.74
H      21.85      -2.79      15.19
H      23.33       3.92      12.58
H      22.33       4.63      11.30
H      18.13      -1.27      12.55
H      19.17      -2.00      11.32
H      21.58      18.31       2.98
H      19.70      17.08       2.12
H      16.89      12.87       1.99
H      16.39      10.67       2.81
H      19.65      10.91       5.44
H      22.52      15.10       5.51
H      21.48      12.72       2.38
H      24.78      10.37       3.48
H      24.29      10.76       5.80
H      18.56      14.79       5.96
H      21.34      12.80       9.38
H      19.47      14.17      10.01
H      17.94      15.20       2.89
H      18.99      14.51       1.64
H      22.14      11.17       7.37
H      23.15      12.63       7.39
H       2.19       7.77      20.89
H       1.66       5.59      21.75
H      -1.37       1.54      21.88
H      -3.28       0.33      21.06
H      -4.14       3.49      18.44
H      -1.15       7.59      18.37
H      -3.05       5.82      21.49
H      -6.36       8.15      20.40
H      -5.83       7.81      18.08
H      -0.13       3.76      17.91
H      -2.92       5.71      14.49
H      -1.01       4.40      13.86
H       0.47       3.31      20.98
H      -0.53       4.07      22.23
H      -4.73       5.93      16.50
H      -3.69       7.36      16.48
H      10.15      20.59      10.24
H       8.27      21.95       9.61
H       5.46      24.17       6.03
H       4.96      24.56       3.71
H       8.22      22.16       2.61
H      11.09      20.01       6.20
H      10.06      23.90       5.70
H      13.35      24.13       3.12
H      12.86      21.93       2.30
H       7.13      19.77       5.70
H       9.91      17.80       2.27
H       8.04      16.57       3.14
H       6.51      22.22       7.59
H       7.56      23.65       7.63
H      10.71      20.36       1.86
H      11.72      19.61       3.12
H      13.62      -5.81      20.16
H      13.08      -5.47      17.84
H      10.06      -3.56      14.26
H       8.15      -2.25      13.63
H       7.29      -1.55      17.67
H      10.28      -3.54      21.26
H       8.38      -5.36      18.17
H       5.07      -5.57      20.73
H       5.60      -3.40      21.60
H      11.30      -1.23      18.17
H       8.51       0.76      21.58
H      10.42       1.96      20.75
H      11.90      -3.66      16.25
H      10.90      -5.13      16.28
H       6.70      -1.09      20.76
H       7.74      -1.79      22.01
H       5.91     -10.38      19.36
H       5.18      -6.52      16.50
H       4.63      -7.43      15.10
H       6.35      -7.06      15.28
H      -5.05      20.65      14.25
H       4.95      -7.83      19.57
H      13.53       3.97      17.29
H      14.28       0.09      20.11
H      16.04       0.15      20.04
H      15.14      -0.81      18.85
H      18.15       1.67      16.16
H      12.47       2.84      19.55
H      14.22      27.73       6.59
H      10.30      27.15       3.76
H       9.78      28.83       3.84
H       9.17      27.66       5.02
H      21.93      -1.00       7.72
H      13.50      26.36       4.32
H       3.22      15.77       4.52
H       7.10      16.37       7.38
H       6.43      15.54       8.77
H       6.21      17.29       8.59
H       1.84      15.77       9.62
H       5.95      15.71       4.31
H      17.34       4.59       5.20
H      16.61       5.14       9.97
H      16.06       6.80       9.88
H      17.78       6.46      10.12
H      17.81       9.66       6.63
H      16.38       3.13       7.31
H      -9.33      -0.79      18.67
H      25.71      -1.30      13.90
H      -6.82      -1.27      13.99
H      -7.72       0.24      13.75
H      -4.71       1.33      17.24
H      23.90      -2.19      16.56
H       2.79      12.76      16.60
H      -1.12      15.49      17.51
H      -1.65      14.59      18.92
H      -2.26      14.15      17.32
H      -0.92       9.98      19.15
H       2.07      15.40      16.54
H      -8.21      20.53       7.27
H      -4.33      17.76       6.36
H      -5.00      16.96       4.95
H      -5.22      16.24       6.56
H      24.70      16.11       4.73
H      -5.48      20.74       7.33
H      -5.52       9.36      25.25
H      -6.25       4.96      23.33
H      -6.80       4.20      24.82
H      -5.08       4.17      24.40
H       6.38      21.75       0.93
H      -6.48       8.26      22.93
H       2.10       0.39      13.85
H       2.85       4.78      15.80
H       4.61       4.68      15.78
H       3.71       4.13      17.21
H       6.72       0.56      16.41
H       1.04       2.92      13.70
H      14.22      -4.59      26.62
H      21.73       9.42       0.54
H       9.78      -7.52      27.05
H       9.17      -5.91      27.46
H      10.50      -5.41      22.94
H      24.93      10.30       0.94
H      14.65      15.76      10.02
H      18.53      17.94       8.07
H      17.86      19.56       8.09
H      17.64      18.53       6.66
H      13.27      20.18       7.46
H      17.38      15.61      10.18
N      -5.18      19.10      15.47
N      -5.03      19.16       8.45
N       0.44      15.30      15.43
N       0.43      15.14       8.40
N      17.93       3.47      15.37
N      23.59      -0.70      15.28
N      17.88       3.33       8.59
N      23.70      -0.62       8.50
N      17.68       9.38       4.68
N      17.83      15.43       8.25
N      23.29      11.32       1.41
N      23.29      17.48       4.79
N      -4.93       1.12      19.19
N       0.73       3.28      15.62
N      -4.97       7.06      22.46
N       0.84       9.11      19.09
N       6.25      23.58       1.66
N       6.40      17.47       5.12
N      11.87      25.45       4.97
N      11.86      19.44       8.62
N       6.50      -1.02      15.25
N      12.16       0.99      18.90
N       6.45      -6.82      18.76
N      12.27      -4.92      22.22
N      -5.41      21.15      17.47
N      -5.61      22.63      15.69
N      15.41       3.37      16.74
N      16.23       1.44      17.76
N      24.45      -3.02       7.13
N      22.36      -2.89       6.12
N       2.43      15.60       6.40
N       3.89      15.91       8.18
N      17.45       6.62       5.45
N      17.25       7.43       7.63
N      -7.45      -0.02      18.42
N      -6.63       0.06      16.24
N       1.59      11.50      17.69
N      -0.50      12.31      18.31
N      -9.00      18.98       6.18
N      -7.54      17.28       5.56
N      -5.41       8.13      26.88
N      -5.61       5.84      26.49
N       3.98       0.22      14.65
N       4.80       2.06      15.81
N      13.02      -4.90      24.99
N      10.93      -5.85      25.38
N      13.86      17.48       9.22
N      15.32      18.87       8.06
