17

C      -1.57       5.28       3.46
C      -2.04       5.67       4.74
C      -2.52       6.96       4.92
C      -1.88       4.82       5.93
O      -2.68      10.39       3.63
H      -1.22       4.27       3.30
H      -2.88       7.25       5.89
H      -0.38       6.52       0.68
H      -0.27       4.98       1.33
O      -3.29       9.49       5.51
O      -2.44       5.18       7.05
O      -1.16       3.76       5.88
N      -0.86       5.82       1.23
C      -2.84       9.21       4.34
C      -2.45       7.93       3.90
C      -1.90       7.58       2.59
C      -1.44       6.23       2.43
