17

O       4.26       6.55      10.22
O       4.85       7.43       8.31
O       4.02      11.72       6.80
C       4.41       7.70       9.49
C       4.02       9.00       9.92
C       3.48       9.34      11.23
C       3.00      10.69      11.40
C       3.13      11.64      10.38
H       2.76      12.65      10.53
H       4.44       9.69       7.93
H       1.95      10.38      13.15
H       1.85      11.93      12.52
C       3.61      11.26       9.10
C       4.09       9.97       8.91
C       3.45      12.10       7.91
N       2.43      11.08      12.60
O       2.71      13.15       7.93
