192

Cr       3.41      -0.30      10.19
Cr       7.90      -1.91       6.37
Cr      -1.09       2.21       6.89
Ga      -2.86       6.26       1.96
Ga      -3.40       8.68       5.36
Ga       6.13       8.70       4.44
Ga       5.58       4.55       4.84
Ga       1.64       5.33       5.32
Ga       1.07       7.06       1.52
Ga       7.37       0.54       9.72
Ga      -1.60      -1.92       7.34
Ga       2.88       1.37       6.40
P       6.09      -1.80      11.06
P      -0.76       6.91       4.16
P      10.58      -1.91       4.64
P       8.22       6.48       3.91
P       1.59       3.72       7.76
P       3.73       6.91       3.65
P      -1.61       8.59       0.62
P       5.30      -0.14       7.54
P      -6.09       8.70       7.14
P      -3.69       0.31       7.83
P       2.89       3.00       3.98
P       0.80      -0.16       8.09
H       3.75      -2.85      10.48
H       2.19      -2.56       9.85
H       7.75       6.72       1.03
H       3.33       2.21       9.48
H       4.77       1.96      10.29
H       7.62       4.28       0.89
H       6.10       3.55       0.29
H       5.64       5.73       1.52
H       0.74      -0.91      11.51
H       6.12       8.49       1.26
H       1.22       1.49      11.25
H       2.84       3.35      11.43
H       8.46       9.06       0.61
H       8.24      -0.88       4.01
H       6.69      -0.48       4.59
H       3.25       9.28       5.32
H       7.82      -2.55       8.90
H       9.26      -3.13       8.27
H       3.12      10.62       3.26
H       1.61      11.50       2.93
H       1.14       9.35       4.20
H       5.23      -2.74       5.19
H       1.63       8.19       6.73
H       5.71      -3.72       7.39
H       7.33      -4.81       8.91
H       3.97       8.46       7.54
H      -0.75       3.74       8.96
H      -2.31       3.04       9.02
H      -1.25       4.29       5.39
H      -1.17       0.34       5.08
H       0.27       1.17       4.89
H      -1.38       5.40       7.58
H      -2.89       5.25       8.51
H      -3.36       5.23       6.01
H      -3.76       3.66       6.76
H      -2.88       3.61       3.74
H      -3.28       2.23       4.81
H      -1.65       1.46       3.11
H      -0.53       2.77       3.58
H       0.75       9.60       1.24
H       2.29       9.31       1.90
H      -3.20       0.02      10.66
H       1.16       4.57       2.28
H      -0.27       4.84       1.45
H      -3.08       2.51      10.85
H      -1.56       3.20      11.47
H      -1.12       1.06      10.20
H       3.78       7.65       0.21
H      -1.61      -1.77      10.49
H       3.30       5.28       0.48
H       1.69       3.42       0.36
H      -3.94      -2.32      11.14
H      -3.73       7.67       7.70
H      -2.19       7.23       7.13
H       1.30      -2.47       6.42
H      -3.33       9.28       2.83
H      -4.75       9.86       3.50
H       1.42      -3.87       8.48
H       2.94      -4.76       8.77
H       3.39      -2.59       7.55
H      -0.70       9.52       6.53
H       2.89      -1.42       4.94
H      -1.18      10.47       4.34
H      -2.80      11.52       2.80
H       0.55      -1.71       4.15
H       5.24       3.03       2.79
H       6.79       3.74       2.70
H       5.79       2.44       6.37
H       5.67       6.44       6.63
H       4.24       5.59       6.80
H       5.91       1.36       4.13
H       7.43       1.55       3.21
H       7.88       1.52       5.70
H       8.28       3.11       4.98
H       7.39       3.19       8.01
H       7.80       4.53       6.90
H       6.19       5.35       8.58
H       5.05       4.03       8.16
C       6.78       4.41       0.19
C       6.05       5.71       0.50
C       6.51       8.20       0.28
C       3.18       2.32      11.57
C       2.29      11.16       3.72
C       1.55      10.24       4.70
C       2.02       9.19       6.97
C       7.67      -4.42       7.94
C      -2.22       4.74       7.81
C      -2.95       4.35       6.53
C      -2.49       2.91       4.49
C      -1.32       2.10       3.94
C      -2.25       2.36      11.55
C      -1.53       1.05      11.22
C      -1.99      -1.44      11.46
C       1.34       4.45       0.19
C       2.25      -4.41       8.00
C       2.98      -3.47       7.03
C       2.51      -2.43       4.75
C      -3.15      11.15       3.77
C       6.74       2.05       3.90
C       7.47       2.41       5.20
C       7.01       3.86       7.24
C       5.84       4.69       7.77
N       2.87      -2.28      10.56
N       7.02       6.81       0.29
N       3.76       1.77      10.31
N       7.37      -1.23       4.47
N       2.53       9.87       5.75
N       8.25      -3.05       8.10
N      -1.62       3.52       8.43
N      -1.97       3.62       5.69
N      -0.74       1.28       5.05
N       1.63       9.04       1.17
N      -2.49      -0.05      11.40
N       0.75       5.01       1.44
N      -2.85       8.00       7.25
N       2.01      -3.07       5.98
N      -3.74       9.79       3.64
N       6.13       3.25       3.30
N       6.51       3.12       6.06
N       5.25       5.50       6.66
O       5.08      -0.60      11.15
O      11.14       4.86       0.83
O       7.31      -1.28      10.17
O       5.57      -3.10      10.54
O      -1.65       5.89       3.36
O      -0.12       6.04       5.33
O      -1.55       8.07       4.77
O       0.38       7.46       3.28
O       9.57      -2.60       5.62
O       6.66      10.38       3.80
O      -1.68      -1.40       5.55
O      10.06      -0.80       3.77
O       7.33       7.67       3.42
O       8.87       5.90       2.58
O       7.44       5.37       4.61
O      -4.13       6.97       4.83
O       0.58       3.20       6.67
O       2.15       5.05       7.10
O       2.81       2.67       7.75
O       1.07       3.92       9.15
O       2.85       6.73       4.94
O       4.37       8.36       3.82
O       2.94       6.86       2.35
O       4.87       5.87       3.61
O      -0.63       7.37       0.54
O      -6.66       1.93      10.85
O      -2.84       8.08       1.52
O      -1.06       9.88       1.14
O       6.19       0.90       8.30
O       4.65       0.69       6.35
O       6.10      -1.31       6.96
O       4.18      -0.69       8.44
O      -5.10       9.38       6.13
O      -2.16      -3.59       7.98
O       6.18       8.17       6.24
O      -5.54       7.60       8.00
O      -2.80      -0.87       8.35
O      -4.35       0.92       9.14
O      -2.89       1.40       7.11
O       8.67      -0.19       6.91
O       3.88       3.54       5.07
O       2.33       1.66       4.63
O       1.67       4.04       3.97
O       3.44       2.81       2.60
O       1.68      -0.03       6.80
O       0.15      -1.60       7.97
O       1.61      -0.08       9.38
O      -0.32       0.89       8.12
