408

Ag      11.27      11.62      16.56
Ag       1.63       0.64      16.47
Ag       4.82      21.32       5.46
Ag       8.08      10.34       5.55
Ag       1.63      10.34       5.46
Ag      11.26      21.32       5.55
Ag       8.08       0.64      16.56
Ag       4.82      11.62      16.47
H       4.13      15.95      19.76
H       1.86      14.62      19.74
H       5.31      16.43      15.04
H       7.59      17.69      14.98
H      11.19      19.59      19.54
H       8.97      18.22      19.66
H       8.20       8.34      13.53
H       5.96       8.02      12.22
H       1.90      12.35      10.50
H       4.18      12.57      11.75
H       0.99       7.57      10.14
H      11.69       7.41       8.72
H       8.77       4.96      13.26
H      11.03       3.64      13.28
H       7.59       5.45      17.99
H       5.31       6.71      18.05
H       1.71       8.60      13.49
H       3.93       7.24      13.37
H       4.70      19.32      19.50
H       6.94      19.00      20.81
H      11.00       1.36       0.50
H       8.72       1.59      21.28
H      11.90      18.55       0.87
H       1.21      18.39       2.29
H      10.57      17.00       2.25
H       8.31      18.33       2.28
H      11.75      16.52       6.98
H       1.14      15.26       7.04
H       4.74      13.36       2.48
H       2.52      14.72       2.36
H       1.75       2.64       8.49
H      12.41       2.96       9.80
H       8.35      20.60      11.51
H      10.63      20.37      10.27
H       7.44       3.41      11.88
H       5.24       3.57      13.30
H       2.32       6.02       8.76
H       4.59       7.34       8.73
H       1.14       5.54       4.03
H      11.76       4.27       3.97
H       8.15       2.38       8.53
H      10.38       3.74       8.65
H      11.14      13.62       2.52
H       0.49      13.94       1.21
H       4.55       9.62      21.51
H       2.27       9.39       0.74
H       5.46      14.40      21.15
H       7.66      14.55      19.73
H       8.77       6.02       2.25
H      11.03       7.34       2.28
H       7.59       5.54       6.98
H       5.31       4.27       7.04
H       1.70       2.38       2.48
H       3.93       3.74       2.36
H       4.70      13.62       8.49
H       6.94      13.94       9.80
H      11.00       9.62      11.51
H       8.72       9.39      10.27
H      11.90      14.40      11.88
H       1.21      14.55      13.29
H       4.13      17.00       8.76
H       1.86      18.33       8.73
H       5.30      16.52       4.03
H       7.59      15.26       3.97
H      11.19      13.36       8.53
H       8.97      14.72       8.65
H       8.20       2.64       2.52
H       5.96       2.96       1.21
H       1.90      20.60      21.51
H       4.18      20.37       0.74
H       1.00       3.41      21.15
H      11.69       3.57      19.73
H       2.32       4.96      19.76
H       4.59       3.64      19.74
H       1.15       5.45      15.04
H      11.76       6.71      14.98
H       8.15       8.60      19.54
H      10.38       7.24      19.66
H      11.14      19.32      13.53
H       0.49      19.00      12.22
H       4.55       1.36      10.50
H       2.27       1.59      11.75
H       5.46      18.55      10.14
H       7.66      18.39       8.72
H      10.57      15.95      13.26
H       8.31      14.62      13.28
H      11.75      16.43      17.99
H       1.14      17.69      18.05
H       4.74      19.58      13.49
H       2.52      18.22      13.37
H       1.76       8.34      19.50
H      12.41       8.02      20.81
H       8.35      12.35       0.50
H      10.63      12.57      21.27
H       7.44       7.57       0.87
H       5.24       7.41       2.29
C       0.89      13.81      17.18
C       2.05      14.48      17.56
C       4.23      15.72      17.59
C       3.66      15.55      18.87
C       2.45      14.86      18.85
C       5.43      16.39      17.21
C       5.88      16.69      15.93
C       7.09      17.39      15.89
C       7.62      17.66      17.16
C       8.82      18.36      17.48
C      10.96      19.65      17.36
C      10.60      19.31      18.67
C       9.41      18.58      18.73
C      12.11      20.32      16.95
C       8.87      11.00      14.29
C       7.76      10.48      13.63
C       7.52       9.15      13.28
C       6.31       8.98      12.59
C       5.61      10.18      12.39
C       4.38      10.40      11.70
C       2.19      10.18      10.45
C       2.54      11.50      10.75
C       3.75      11.62      11.44
C       1.02       9.72       9.78
C       0.51       8.42       9.67
C      12.22       8.34       8.93
C      11.79       9.58       8.46
C      10.63       9.87       7.76
C      12.01       2.83      15.84
C      10.85       3.50      15.46
C       8.67       4.74      15.43
C       9.24       4.57      14.16
C      10.45       3.88      14.17
C       7.47       5.41      15.81
C       7.02       5.71      17.10
C       5.81       6.41      17.13
C       5.28       6.68      15.87
C       4.08       7.37      15.55
C       1.94       8.67      15.66
C       2.30       8.33      14.35
C       3.49       7.60      14.29
C       0.79       9.34      16.07
C       4.03       0.02      18.74
C       5.14      21.46      19.40
C       5.38      20.13      19.75
C       6.58      19.96      20.44
C       7.29      21.16      20.64
C       8.52      21.39      21.32
C      10.71      21.17       0.55
C      10.36       0.52       0.26
C       9.15       0.64      21.59
C      11.88      20.70       1.22
C      12.39      19.40       1.34
C       0.67      19.32       2.08
C       1.11      20.57       2.55
C       2.27      20.85       3.25
C       7.34      19.14       4.84
C       8.49      18.46       4.45
C      10.67      17.22       4.42
C      10.11      17.39       3.15
C       8.89      18.09       3.16
C      11.87      16.55       4.80
C      12.32      16.25       6.09
C       0.64      15.56       6.12
C       1.17      15.29       4.86
C       2.37      14.59       4.54
C       4.51      13.30       4.65
C       4.15      13.64       3.35
C       2.96      14.36       3.28
C       5.66      12.63       5.06
C       2.43      21.95       7.73
C       1.32       0.50       8.39
C       1.07       1.83       8.74
C      12.76       2.00       9.43
C      12.06       0.80       9.63
C      10.83       0.58      10.31
C       8.64       0.80      11.56
C       8.99      21.44      11.27
C      10.20      21.32      10.58
C       7.47       1.26      12.23
C       6.96       2.56      12.35
C       5.78       2.65      13.09
C       5.34       1.40      13.56
C       4.18       1.11      14.26
C       5.56       8.16       6.17
C       4.40       7.48       6.56
C       2.22       6.24       6.58
C       2.79       6.41       7.86
C       4.01       7.11       7.85
C       1.02       5.57       6.21
C       0.57       5.27       4.92
C      12.26       4.58       4.89
C      11.73       4.30       6.15
C      10.53       3.61       6.47
C       8.38       2.31       6.35
C       8.74       2.66       7.66
C       9.94       3.38       7.72
C       7.23       1.64       5.95
C      10.47      10.97       3.28
C      11.58      11.48       2.62
C      11.82      12.82       2.27
C       0.13      12.98       1.58
C       0.84      11.79       1.38
C       2.07      11.56       0.69
C       4.26      11.78      21.46
C       3.91      10.46      21.76
C       2.70      10.34       0.43
C       5.43      12.24      20.79
C       5.94      13.55      20.68
C       7.12      13.63      19.94
C       7.56      12.38      19.47
C       8.72      12.09      18.77
C      12.00       8.16       4.84
C      10.85       7.48       4.45
C       8.67       6.24       4.42
C       9.24       6.41       3.15
C      10.45       7.11       3.16
C       7.47       5.57       4.80
C       7.02       5.27       6.09
C       5.81       4.58       6.12
C       5.28       4.30       4.86
C       4.08       3.61       4.54
C       1.93       2.31       4.65
C       2.30       2.66       3.34
C       3.49       3.38       3.28
C       0.79       1.64       5.06
C       4.02      10.97       7.73
C       5.13      11.48       8.39
C       5.38      12.82       8.74
C       6.58      12.98       9.43
C       7.29      11.79       9.63
C       8.52      11.56      10.31
C      10.71      11.78      11.56
C      10.36      10.46      11.27
C       9.15      10.34      10.58
C      11.88      12.24      12.23
C      12.39      13.55      12.35
C       0.68      13.63      13.09
C       1.11      12.38      13.55
C       2.27      12.09      14.26
C       0.89      19.14       6.17
C       2.05      18.46       6.56
C       4.23      17.22       6.58
C       3.66      17.39       7.86
C       2.44      18.09       7.85
C       5.42      16.55       6.21
C       5.87      16.25       4.92
C       7.09      15.56       4.89
C       7.62      15.29       6.15
C       8.82      14.59       6.47
C      10.96      13.30       6.35
C      10.60      13.64       7.66
C       9.41      14.36       7.72
C      12.11      12.63       5.95
C       8.87      21.95       3.28
C       7.76       0.50       2.62
C       7.52       1.83       2.27
C       6.31       2.00       1.58
C       5.61       0.80       1.38
C       4.38       0.58       0.69
C       2.19       0.80      21.46
C       2.54      21.44      21.76
C       3.75      21.32       0.43
C       1.02       1.26      20.79
C       0.51       2.56      20.68
C      12.22       2.65      19.94
C      11.79       1.40      19.47
C      10.63       1.11      18.77
C       5.56       2.83      17.18
C       4.40       3.50      17.56
C       2.22       4.74      17.59
C       2.79       4.57      18.87
C       4.01       3.88      18.85
C       1.03       5.41      17.21
C       0.58       5.71      15.93
C      12.26       6.41      15.89
C      11.73       6.68      17.16
C      10.53       7.37      17.48
C       8.38       8.67      17.36
C       8.75       8.33      18.67
C       9.94       7.60      18.73
C       7.24       9.34      16.95
C      10.47       0.02      14.29
C      11.58      21.46      13.63
C      11.83      20.13      13.28
C       0.14      19.96      12.59
C       0.84      21.16      12.39
C       2.07      21.39      11.70
C       4.26      21.17      10.46
C       3.91       0.52      10.75
C       2.70       0.64      11.44
C       5.43      20.70       9.78
C       5.94      19.40       9.67
C       7.12      19.32       8.93
C       7.55      20.57       8.46
C       8.72      20.85       7.76
C       7.34      13.81      15.84
C       8.50      14.48      15.46
C      10.67      15.72      15.43
C      10.11      15.55      14.16
C       8.89      14.86      14.17
C      11.87      16.39      15.81
C      12.32      16.69      17.10
C       0.64      17.39      17.13
C       1.17      17.66      15.87
C       2.37      18.36      15.55
C       4.52      19.65      15.66
C       4.15      19.31      14.35
C       2.96      18.58      14.29
C       5.66      20.32      16.07
C       2.43      11.00      18.74
C       1.32      10.48      19.40
C       1.07       9.15      19.75
C      12.76       8.98      20.44
C      12.06      10.18      20.64
C      10.83      10.40      21.32
C       8.63      10.18       0.55
C       8.99      11.50       0.26
C      10.20      11.62      21.59
C       7.47       9.72       1.22
C       6.96       8.42       1.34
C       5.77       8.34       2.08
C       5.34       9.58       2.55
C       4.18       9.87       3.25
S       3.23      14.98      16.38
S       6.56      17.00      18.40
S       9.78      19.08      16.22
S       6.46      11.51      13.11
S       3.43       9.09      11.03
S       0.01      10.85       8.92
S       9.67       4.00      16.65
S       6.34       6.02      14.62
S       3.12       8.10      16.81
S       6.44       0.53      19.92
S       9.47      20.07      21.99
S      12.89      21.83       2.09
S       9.67      17.97       5.64
S       0.12      15.94       3.61
S       3.33      13.87       5.80
S       0.01      21.43       8.91
S       9.88       1.89      10.98
S       6.46       0.13      13.10
S       3.22       6.99       5.37
S      12.78       4.96       7.39
S       9.57       2.88       5.21
S      12.88      10.45       2.10
S       3.02      12.88       0.03
S       6.44      11.11      19.93
S       9.67       6.99       5.64
S       6.33       4.96       3.61
S       3.12       2.88       5.80
S       6.44      10.45       8.91
S       9.47      12.88      10.98
S      12.89      11.11      13.10
S       3.23      17.97       5.37
S       6.56      15.94       7.39
S       9.77      13.87       5.21
S       6.46      21.43       2.10
S       3.43       1.89       0.03
S       0.01       0.13      19.93
S       3.23       4.00      16.38
S      12.78       6.02      18.40
S       9.57       8.10      16.22
S      12.88       0.53      13.11
S       3.02      20.07      11.04
S       6.44      21.83       8.92
S       9.67      14.98      16.65
S       0.12      17.00      14.62
S       3.33      19.08      16.81
S       0.02      11.51      19.92
S       9.88       9.09      21.99
S       6.46      10.85       2.09
N      12.81      13.26      16.83
N       0.20      20.86      16.61
N       9.82      11.44      14.83
N       9.63      10.13       7.19
N       0.09       2.28      16.19
N      12.70       9.88      16.41
N       3.08       0.46      18.20
N       3.27      21.11       3.81
N       6.36      19.69       5.19
N       6.65      12.08       5.41
N       3.37      21.51       7.19
N       3.18       0.85      14.82
N       6.53       8.71       5.82
N       6.25       1.10       5.60
N       9.52      10.52       3.82
N       9.72      11.84      18.21
N       0.09       8.70       5.18
N      12.70       1.10       5.40
N       3.08      10.52       7.19
N       3.27      11.83      14.82
N      12.81      19.69       5.82
N       0.20      12.08       5.60
N       9.82      21.51       3.82
N       9.63       0.85      18.20
N       6.54       2.28      16.83
N       6.25       9.88      16.61
N       9.53       0.46      14.83
N       9.72      21.11       7.20
N       6.36      13.26      16.19
N       6.65      20.86      16.41
N       3.37      11.44      18.20
N       3.18      10.13       3.81
