160

Ni      14.17      12.76      16.40
Ni       2.40       9.27       7.88
Ni       0.63       1.92       0.64
Ni      12.40       5.42       9.16
H       1.31       5.03      16.62
H       5.07      13.60      14.50
H       5.06      11.57       1.05
H       7.52      13.79      14.49
H       7.53      11.63       1.20
H       9.52      13.83      14.51
H       9.53      11.84       1.31
H      11.99      13.85      14.63
H      12.00      11.94       1.24
H      13.21       8.21      15.94
H      13.69      10.38      12.24
H      12.26       6.30      12.22
H      11.72       2.31       8.10
H      11.51       8.43       5.97
H      11.52      10.47       9.57
H       9.05       8.24       5.97
H       9.06      10.41       9.72
H       7.06       8.20       5.99
H       7.05      10.20       9.83
H       4.59       8.18       6.11
H       4.58      10.09       9.76
H       3.37      13.82       7.42
H       2.90      11.66       3.71
H       0.78       1.04       3.71
H      13.50       9.66       0.42
H       9.74       1.08       2.54
H       9.74       3.12      15.99
H       7.28       0.89       2.55
H       7.28       3.06      15.84
H       5.29       0.86       2.53
H       5.28       2.85      15.73
H       2.82       0.84       2.41
H       2.80       2.74      15.79
H       1.59       6.48       1.10
H       1.12       4.30       4.80
H       2.55       8.38       4.82
H       3.09      12.38       8.94
H       3.30       6.26      11.07
H       3.28       4.21       7.47
H       5.75       6.45      11.07
H       5.75       4.27       7.32
H       7.75       6.48      11.05
H       7.75       4.48       7.21
H      10.22       6.51      10.93
H      10.23       4.59       7.27
H      11.44       0.87       9.62
H      11.90       3.03      13.33
H      14.03      13.64      13.33
C       5.65      13.20      15.32
C       5.66      12.06       0.28
C       7.04      13.29      15.32
C       7.04      12.10       0.35
C       7.78      12.74      16.38
C       9.26      12.81      16.42
C      10.00      13.40      15.38
C      10.01      12.30       0.46
C      11.39      13.41      15.43
C      11.40      12.35       0.43
C      13.00       8.28      10.56
C      13.48       9.43      14.18
C      13.15       8.25      14.86
C      13.43       9.47      12.77
C      12.70       7.14      14.15
C      13.01       8.33      12.06
C      12.61       7.18      12.76
C      12.28       5.90      14.88
C      13.84      10.66      14.94
C      10.92       8.83       6.80
C      10.93       9.98       8.80
C       9.54       8.74       6.80
C       9.54       9.94       8.87
C       8.80       9.29       7.86
C       7.31       9.22       7.90
C       6.58       8.63       6.86
C       6.57       9.74       8.97
C       5.19       8.62       6.91
C       5.18       9.69       8.95
C       3.58      13.76       2.04
C       3.11      12.60       5.65
C       3.43      13.78       6.34
C       3.16      12.57       4.25
C       0.34       0.20       5.63
C       3.57      13.71       3.54
C       0.43       0.16       4.24
C       0.75       1.44       6.36
C       2.75      11.37       6.42
C       9.15       1.49       1.72
C       9.15       2.63      16.76
C       7.77       1.40       1.71
C       7.76       2.58      16.69
C       7.03       1.95       0.65
C       5.54       1.87       0.62
C       4.80       1.29       1.66
C       4.80       2.38      16.58
C       3.41       1.28       1.61
C       3.41       2.34      16.61
C       1.81       6.41       6.48
C       1.33       5.25       2.86
C       1.65       6.43       2.18
C       1.38       5.22       4.27
C       2.10       7.55       2.89
C       1.79       6.36       4.98
C       2.20       7.50       4.28
C       2.53       8.78       2.16
C       0.97       4.02       2.10
C       3.88       5.85      10.24
C       3.88       4.71       8.24
C       5.27       5.94      10.24
C       5.27       4.75       8.17
C       6.01       5.39       9.18
C       7.49       5.47       9.14
C       8.23       6.05      10.18
C       8.24       4.95       8.06
C       9.62       6.07      10.13
C       9.63       5.00       8.09
C      11.23       0.92      15.00
C      11.70       2.09      11.39
C      11.38       0.91      10.70
C      11.65       2.12      12.79
C      14.47      14.48      11.41
C      11.24       0.97      13.50
C      14.38      14.53      12.80
C      14.06      13.24      10.68
C      12.06       3.32      10.62
N       4.96      12.61      16.31
N      12.09      12.88      16.45
N      11.62       9.42       7.79
N       4.49       9.14       7.93
N       9.85       2.07       0.73
N       2.72       1.80       0.59
N       3.19       5.27       9.25
N      10.32       5.54       9.11
O      14.04      11.76      14.34
O       2.64      10.62      16.24
O       2.41       9.17       9.94
O      12.31       7.37      10.01
O      11.41       5.14      14.48
O       1.71       5.75      16.02
O       2.54      10.27       5.82
O      13.95      11.41       7.72
O      14.18      12.87       1.42
O       4.27      14.68       1.49
O       1.60       2.22       5.96
O      11.33       1.58       7.51
O       0.77       2.93       2.70
O      12.17       4.07       0.80
O      12.40       5.52       7.10
O       2.49       7.32       7.03
O       3.40       9.55       2.56
O      13.10       8.94       1.02
O      12.26       4.42      11.21
O       0.86       3.27       9.32
O       0.63       1.81      15.62
O      10.54       0.01      15.55
O      13.20      12.46      11.08
O       3.48      13.10       9.53
