14

O      -4.96       9.51      17.77
Cu      -4.05       8.42      20.55
O      -3.82      10.16      19.65
C      -4.31      10.36      18.48
Cu      -5.26       7.72      18.55
O      -4.35       6.62      21.32
O      -5.49       5.98      19.45
O      -5.76       9.05      21.32
O      -6.88       8.39      19.45
C      -2.50       7.22      18.48
C      -6.82       8.91      20.62
O      -2.43       7.75      19.65
O      -3.56       7.08      17.77
C      -5.00       5.77      20.62
