14

Cu      13.36       7.71      10.77
O      14.28       6.62       8.02
O      13.12       5.97       9.88
C      14.32      10.37      10.83
Cu      14.58       8.42       8.78
C      13.62       5.77       8.71
O      13.66       9.51      11.53
O      14.81      10.16       9.67
O      15.07       7.08      11.53
O      16.20       7.75       9.67
C      11.80       8.91       8.71
O      12.87       9.06       8.02
O      11.73       8.38       9.88
C      16.13       7.22      10.83
