20

H       7.40       3.61       2.37
H       7.57       5.04      -2.37
C       9.90       3.86       1.51
C       6.23       4.14       0.63
C       8.66       4.11       0.72
C       7.42       3.92       1.33
C       4.94       3.99       1.39
C       5.06       4.79      -1.51
C       8.74       4.52      -0.63
C       6.30       4.55      -0.72
C       7.55       4.73      -1.33
C      10.03       4.67      -1.39
O       9.82       3.49       2.74
O       4.34       2.86       1.48
O      11.05       4.04       0.98
O       4.53       4.99       2.07
O       5.14       5.17      -2.74
O      10.63       5.80      -1.48
O       3.91       4.62      -0.98
O      10.44       3.66      -2.07
