42

O       7.90       0.44      13.84
O       7.91       1.78      12.00
C       6.48       2.35      13.80
C       7.50       1.45      13.17
C       5.87       2.00      15.01
H       3.97       4.78      15.48
H       6.12       1.05      20.78
H       3.97       4.78      20.78
H       6.12       1.05      15.48
C       6.17       3.56      13.18
C       4.94       2.86      15.62
C       4.29       2.48      16.90
C       3.08       1.78      16.92
C       6.17       3.56      23.07
H       6.64       3.84      12.24
C       4.29       2.48      19.35
H       2.62       1.51      15.97
C       3.08       1.78      19.33
C       4.94       2.86      20.64
H       6.55       3.79      17.26
H       6.64       3.84      24.01
H       6.55       3.79      19.00
H       2.62       1.51      20.28
H       1.53       0.88      18.13
C       4.91       2.84      18.13
C       2.47       1.43      18.13
N       6.11       3.53      18.13
C       5.27       4.44      13.80
C       5.01       5.77      13.17
C       4.66       4.09      15.01
O       4.33       6.62      13.84
C       6.48       2.35      22.46
C       7.50       1.45      23.09
C       5.87       2.00      21.25
O       7.90       0.44      22.41
O       7.91       1.78      24.26
O       5.50       5.96      12.00
O       4.33       6.62      22.41
O       5.50       5.96      24.26
C       5.27       4.44      22.46
C       5.01       5.77      23.09
C       4.66       4.09      21.25
