16

C       0.96       0.71      13.12
O      -3.28      -0.30      11.11
O      -1.46      -0.35       9.76
O      -1.47      -0.39      15.70
C      -2.04      -0.19      10.92
C      -1.14       0.08      12.08
H      -2.65      -0.59      13.46
C      -0.87      -0.07      14.53
C      -1.63      -0.23      13.36
C       0.20       0.57      11.95
O       2.60       0.80      15.37
O       0.77       0.87      16.72
O       0.79       0.89      10.78
C       1.36       0.69      15.55
C       0.46       0.41      14.39
H       1.99       1.07      13.02
