16

C       2.52      -2.62       7.52
O      -0.97      -1.60       7.09
O       0.79      -0.35       7.76
O       1.07      -5.54       4.84
C       0.27      -1.46       7.30
C       1.20      -2.56       6.99
H      -0.27      -3.52       5.73
C       1.56      -4.63       5.71
C       0.75      -3.56       6.11
O       5.06      -5.63       6.11
O       3.29      -6.91       5.50
O       3.02      -1.70       8.39
C       3.82      -5.78       5.93
C       2.89      -4.68       6.24
H       4.35      -3.74       7.51
C       3.33      -3.69       7.13
