16

O       0.55      18.87      15.87
O       1.50      20.72      14.92
O       0.82      21.04      17.92
O       0.33      17.08      19.87
O       0.41      16.36      17.77
Cd       0.62      18.70      18.22
Cd       2.83      20.96      16.67
C       0.69      21.31      19.19
C       0.46      16.14      19.02
C       3.63      18.13      17.33
C       3.90      22.97      18.10
O       2.86      18.27      18.33
O       3.88      19.01      16.44
O       3.93      21.77      18.54
O       3.47      23.25      16.93
C       0.73      19.69      14.93
