16

C       7.51      11.77       3.38
C      10.72      13.44       4.46
C       7.78      16.62       2.61
O      10.86      15.89       1.15
O       9.91      14.03       0.20
O      10.59      13.70       3.19
Cd       8.58      13.78       1.95
Cd      10.78      16.05       3.50
C      10.68      15.06       0.21
C      10.93      18.61       4.31
O       8.55      16.48       3.61
O       7.53      15.74       1.72
O       7.48      12.98       3.81
O       7.94      11.48       2.21
O      11.02      17.67       5.16
O      11.00      18.39       3.05
