16

C       5.24      16.14      25.13
O       1.78      21.78      25.65
C       4.98      19.70      29.23
Cd       5.09      18.70      25.94
Cd       2.89      20.97      27.49
O       2.25      23.29      27.23
O       2.85      18.27      25.83
O       1.84      19.01      27.72
O       5.35      17.08      24.27
O       5.30      16.37      26.38
C       1.82      22.99      26.07
C       5.03      21.31      24.98
O       5.17      18.87      28.29
C       2.08      18.13      26.83
O       4.90      21.05      26.24
O       4.21      20.72      29.23
