14

O      20.38      15.38      25.74
Cu      19.00      14.15      26.45
C      17.24      16.28      26.26
Cu      19.00      15.59      28.43
O      17.62      15.24      25.61
O      20.40      16.68      27.62
C      20.76      13.34      28.46
O      17.61      16.61      27.44
O      17.63      14.49      29.28
O      20.39      14.36      29.14
O      17.62      13.13      27.45
C      20.76      16.40      26.42
O      20.39      13.06      27.26
C      17.25      13.45      28.63
