88

H       2.44      11.27       3.89
H       4.62      11.44      23.59
H       2.34      10.98       6.32
H       4.72      11.73      21.16
H       3.99       8.44       9.98
H       3.08      14.26      17.50
H       1.13       8.97      23.16
H       5.94      13.74       4.32
H       4.30       7.73      16.73
H       2.76      14.98      10.75
H       4.46       8.03      14.35
H       2.60      14.68      13.13
H      -0.77       9.65      21.72
H      -0.35      10.80      20.38
H      -1.19       9.24      20.02
H       1.14       9.06      19.40
H       0.82       7.97      20.77
H       7.42      11.91       7.10
H       7.83      13.06       5.76
H       8.25      13.47       7.46
H       6.24      14.74       6.71
H       5.92      13.64       8.08
H       1.00       8.17      11.37
H       2.14       7.16      10.38
H       1.29       6.44      11.78
H       3.68       6.96      12.33
H       2.45       7.79      13.35
H       4.93      15.55      17.10
H       6.06      14.54      16.11
H       5.77      16.27      15.70
H       4.61      14.92      14.13
H       3.38      15.75      15.15
C       2.80      10.02      25.03
C       4.27      12.69       2.45
C       4.09      10.80       8.71
C       2.97      11.91      18.77
C       3.55      13.11       8.96
C       3.52       9.60      18.52
C       5.09      13.00       6.16
C       1.98       9.71      21.32
C       5.15      13.14       4.76
C       1.92       9.57      22.72
C       3.18      11.76       4.51
C       3.88      10.95      22.97
C       3.12      11.60       5.89
C       3.94      11.11      21.59
C       4.05      12.23       6.74
C       3.02      10.48      20.74
C       3.63      11.68      10.93
C       3.44      11.02      16.55
C       3.91      10.59      10.09
C       3.16      12.12      17.39
C       3.89       9.30      10.63
C       3.18      13.41      16.85
C       3.41      12.95      10.35
C       3.65       9.76      17.13
C       4.20      12.53       3.93
C       2.87      10.18      23.55
C       3.70      10.07      14.31
C       3.36      12.64      13.17
C       3.44      12.51      14.59
C       3.62      10.20      12.89
C       3.51      11.20      15.14
C       3.55      11.51      12.34
C       4.09       8.86      14.92
C       2.97      13.85      12.56
C       4.04       8.70      16.31
C       3.02      14.01      11.17
C       3.55       9.10      11.98
C       3.51      13.61      15.50
C       0.91       9.04      20.48
C      -0.43       9.73      20.66
C       6.15      13.67       7.00
C       7.50      12.98       6.82
C       2.91       7.76      12.35
C       1.77       7.37      11.41
C       4.15      14.95      15.13
C       5.29      15.34      16.07
N       3.92      12.05       8.17
N       3.14      10.66      19.31
O       1.58       9.91      25.56
O       5.48      12.80       1.92
O       3.96      10.02      25.67
O       3.10      12.69       1.81
O       4.42       9.76       7.92
O       2.64      12.95      19.56
O       3.74       8.39      19.08
O       3.32      14.32       8.40
