88

H       2.43      19.66      23.33
H      -2.66      20.24       4.15
H       2.29      19.89      20.90
H      -2.52      20.02       6.58
H      -0.70      22.70      17.61
H       0.47      17.21       9.87
H       1.21      22.10       4.07
H      -1.44      17.80      23.41
H      -1.83      23.40      10.94
H       1.60      16.51      16.54
H      -1.74      23.04      13.31
H       1.51      16.87      14.17
H       3.19      22.22       5.24
H       2.25      23.74       5.59
H       3.54      23.18       6.72
H       1.35      22.68       7.66
H       2.22      21.16       7.28
H      -2.48      16.17      21.89
H      -3.41      17.68      22.24
H      -3.76      16.72      20.76
H      -2.45      18.75      20.20
H      -1.58      17.23      19.82
H       0.79      24.33      17.05
H       1.97      23.61      15.88
H       1.26      25.24      15.59
H       0.23      23.69      14.11
H      -1.00      24.21      15.32
H      -2.20      16.30      11.60
H      -1.01      15.58      10.43
H      -1.48      14.67      11.89
H       0.78      15.70      12.16
H      -0.46      16.22      13.37
C      -0.79      21.30       2.46
C       0.57      18.61      25.02
C      -0.17      20.38      18.82
C      -0.06      19.53       8.66
C       0.71      18.19      18.46
C      -0.94      21.71       9.02
C      -0.72      18.37      21.43
C       0.50      21.54       6.05
C      -0.63      18.26      22.84
C       0.41      21.65       4.64
C       1.55      19.29      22.82
C      -1.78      20.61       4.66
C       1.47      19.43      21.43
C      -1.70      20.48       6.05
C       0.35      18.98      20.73
C      -0.57      20.93       6.75
C       0.16      19.59      16.54
C      -0.39      20.31      10.94
C      -0.21      20.62      17.43
C      -0.02      19.29      10.05
C      -0.50      21.88      16.92
C       0.28      18.02      10.56
C       0.66      18.38      17.06
C      -0.88      21.53      10.42
C       0.50      18.72      23.54
C      -0.72      21.19       3.94
C      -0.59      21.19      13.23
C       0.36      18.72      14.25
C       0.10      18.85      12.85
C      -0.33      21.06      14.63
C      -0.27      20.12      12.34
C       0.05      19.79      15.14
C      -1.26      22.30      12.68
C       1.04      17.60      14.80
C      -1.36      22.49      11.31
C       1.14      17.41      16.18
C      -0.38      22.16      15.55
C       0.15      17.75      11.93
C       1.71      22.03       6.83
C       2.73      22.85       6.04
C      -1.93      17.88      20.65
C      -2.96      17.06      21.44
C      -0.09      23.60      15.17
C       1.05      24.22      15.97
C      -0.14      16.30      12.31
C      -1.28      15.68      11.51
N       0.28      19.18      19.31
N      -0.51      20.73       8.17
O      -2.01      21.40       1.92
O       1.78      18.51      25.56
O       0.37      21.29       1.81
O      -0.60      18.62      25.67
O      -0.55      21.35      19.68
O       0.32      18.56       7.80
O      -1.42      22.87       8.52
O       1.19      17.04      18.96
