13

O      14.05       9.44       8.17
O      15.99       8.77       9.07
O      12.55      10.73       5.74
O      13.00       9.46       3.96
C      15.33       9.49       8.27
C      16.06      10.51       7.39
C      14.87      10.27       5.23
C      13.38      10.15       4.96
H      16.44      11.29       8.06
H      16.92      10.01       6.92
H      15.26       9.25       5.38
H      15.36      10.64       4.32
N      15.17      11.13       6.39
