198

C      14.72       0.33      14.30
C       7.50      12.70      31.67
C      14.60       0.35      43.04
C       7.56      12.49      15.45
C      13.52       2.21      13.21
C      14.72       0.11       1.74
C       0.35       0.31       0.48
C       0.21       0.77       2.90
C       1.35       1.64       2.82
C       1.89       1.95       1.53
C       1.40       1.26       0.40
C       7.31      12.60      44.23
C       6.87      11.25      44.27
C       6.29      10.61      43.15
C       6.21      11.32      41.90
C       6.58      12.71      41.88
C      13.94       0.65      40.69
C       5.74       9.21      43.27
C      14.43       0.47       4.15
C       2.95       3.01       1.37
C       0.20       0.15      16.71
C      -6.95      12.38      17.87
C       8.20      10.96      17.78
C       8.21      10.34      16.49
C       7.86      11.11      15.36
C      13.78       1.38      14.33
C      -0.79       1.92      11.97
C       0.23       0.91      11.94
C       0.47       0.15      13.10
C       1.07       0.56      10.76
C      12.58       3.38      13.34
C       0.65       0.22      19.12
C       8.59       8.89      16.34
C      14.51       0.16      30.41
C       6.70      12.76      32.83
C      12.86       0.35      32.75
C      12.32       0.66      31.46
C      13.16       0.58      30.33
C       0.39       0.03      29.26
C       1.78       0.33      29.30
C       2.63       0.14      28.18
C      -5.44      12.68      26.94
C      -6.82      12.30      26.91
C       7.36      12.46      28.07
C       7.42      11.74      25.73
C       4.11       0.37      28.31
C       7.33      12.26      34.08
C      10.87       1.05      31.31
C       0.47       0.83      38.75
C      -6.32      12.47      36.89
C       0.73       0.51      36.01
C       0.07       1.87      37.87
C      -0.50       3.17      38.30
C      -7.00      12.14       8.81
C       6.47      12.19       6.96
C       7.56      12.07       6.08
C      -5.90      11.96       7.93
C      -4.49      11.81       8.37
C       6.50      12.94      23.78
C      -0.19       1.25      21.93
C      14.13       0.36      21.05
C       5.81      12.07      22.90
C       4.97      10.92      23.34
C       4.03       4.69      44.82
C       3.71       7.04      44.49
C       5.10       7.27      44.64
C       5.43       4.91       0.05
C       6.43       3.83       0.24
C       9.52       7.12      14.88
C      -3.26       6.22      14.56
C      11.22       4.90      14.71
C       9.01       5.80      15.02
C       7.57       5.47      15.21
C       8.88       1.15      29.85
C      -0.49      12.66      29.53
C       6.11       0.78      29.67
C       7.99       2.25      29.98
C       8.43       3.66      30.17
H      13.09       3.22      10.80
H       6.43      12.45       1.81
H      -0.13       1.34      43.01
H       5.63       9.73      40.74
H       5.92      11.09      39.89
H       2.71       2.69       3.94
H       1.67       1.83       4.84
H       1.82       1.43      44.38
H       7.00      10.72       0.23
H      13.25       0.27      39.95
H      13.52       1.61      41.01
H       6.35       8.56      42.64
H       4.72       9.23      42.88
H      13.35       0.40       3.95
H      -0.45       1.29       4.87
H       3.84       2.67       1.90
H       2.57       3.90       1.89
H       0.07       1.16      16.78
H      -6.27      12.40      13.08
H      -0.85       2.29       9.95
H       8.43       9.26      18.90
H       8.20      10.59      19.80
H       7.80      10.66      14.45
H      13.25       1.53      15.19
H       1.09       1.36      10.02
H       2.11       0.45      11.08
H      11.71       3.18      12.70
H      -1.87       4.26      12.94
H       1.12       1.19      18.92
H      -6.17      12.69      19.83
H       7.85       8.29      16.86
H       9.55       8.77      16.86
H      -6.53      12.31      31.74
H       6.38      12.17      28.05
H      -3.77      12.96      25.77
H      -5.09      12.53      24.92
H      11.26       1.00      33.87
H      12.53       0.52      34.77
H      12.80       0.86      29.42
H       2.17       0.71      30.16
H       8.10      11.33      24.98
H       6.81      10.89      26.04
H       4.37       1.22      27.66
H      -2.88      12.44      27.91
H       7.93      11.36      33.88
H       6.58      11.93      34.80
H      10.72       1.99      31.83
H      10.29       0.28      31.82
H      -5.94      11.59      36.55
H      -0.50       3.89      37.48
H       0.14       3.60      39.08
H      12.55       2.76      38.08
H       0.81       1.67      40.55
H       1.69       0.27      34.28
H       5.52      12.30       6.62
H      -3.86      11.46       7.54
H      -4.44      11.05       9.15
H       3.59       0.72       8.14
H      -6.44      11.43      10.62
H       6.87      11.36       4.35
H       0.37       2.02      21.58
H       4.36      10.55      22.52
H       4.29      11.25      24.13
H       6.30       9.47      23.11
H       5.62      12.81      25.59
H      13.85       1.31      19.31
H       3.06       7.81      44.33
H       7.45       4.22       0.14
H       6.30       3.08      44.36
H       6.53       3.84       2.22
H       3.88       2.71      44.42
H       5.16       9.16       0.37
H      -2.26       6.40      14.40
H       7.40       4.40      15.10
H       6.99       5.96      14.43
H       7.53       5.38      17.18
H       7.87       8.24      14.48
H      -2.15       3.90      15.34
H      -0.83      11.71      29.37
H       7.58       4.34      30.07
H       9.14       3.92      29.38
H       8.38       3.74      32.14
H      10.67       2.01      29.46
H      -3.04      12.86      30.31
N       1.91       2.15       3.96
N       5.83      10.68      40.76
N       8.36      10.22      18.92
N      -1.15       2.57      10.82
N      12.14       0.58      33.89
N      -4.69      12.66      25.79
N      -6.48      12.66      38.22
N       0.21       1.65      36.53
N       0.34       0.85      40.14
N       0.72       0.38      34.61
N       6.72      12.23       8.29
N      -6.16      11.95       6.60
N      -6.92      12.24      10.21
N       7.45      12.14       4.68
N      -0.28       1.01      23.26
N       5.92      12.30      21.57
N       6.56      12.82      25.18
N      14.24       0.42      19.65
N       3.24       5.77      44.59
N       5.89       6.19      44.87
N       3.35       3.44       0.00
N       5.69       8.57      44.62
N      -4.12       7.26      14.65
N       9.89       4.76      14.93
N       8.77       8.33      14.97
N      12.05       3.75      14.68
N       0.85      12.89      29.62
N       6.65       2.01      29.89
N      10.30       1.19      29.93
N       4.69       0.65      29.65
O      13.14       3.04      38.81
O       3.54       0.07       8.88
O       5.76       9.84      23.85
O       6.31       3.18       1.51
O       7.07       5.90      16.48
O       9.05       3.88      31.43
