21

C      10.65       3.90       5.19
C      11.73       3.53       4.39
C      11.54       2.73       3.27
C       8.20       3.85       5.69
C       6.87       4.08       5.30
C       6.21       4.54       6.45
N       7.05       4.58       7.50
N       8.25       4.17       7.02
H       9.06       4.12       7.66
H       8.19       2.15       3.59
H      10.81       4.58       6.03
H      12.73       3.90       4.63
H      12.37       2.46       2.62
H       6.46       3.97       4.30
H       5.18       4.83       6.58
O       9.02       0.59       1.79
O      10.90       1.43       0.85
C      10.04       1.35       1.79
C      10.26       2.23       2.98
C       9.17       2.57       3.81
C       9.35       3.43       4.91
