21

N       5.43       6.61       8.88
N       4.23       7.20       9.08
H       3.43       6.62       9.36
H       4.28      11.11       9.77
H       1.67       7.98       8.35
H      -0.25       9.52       8.50
H       0.10      11.91       9.16
H       6.01       9.82       8.32
H       7.31       7.39       8.34
O       3.45      13.33      10.61
O       1.55      13.92       9.56
C       2.42      13.06       9.91
C       2.21      11.65       9.49
C       3.30      10.76       9.45
C       3.12       9.43       9.03
C       1.83       9.00       8.69
C       0.74       9.87       8.76
C       0.93      11.20       9.13
C       4.28       8.55       8.91
C       5.61       8.84       8.57
C       6.27       7.61       8.55
