24

Li       6.52       0.94       1.82
Li       4.53      -0.94       1.82
Li       4.53       0.94       3.75
Li       6.52      -0.94       3.75
C       3.13      -3.35       0.96
C       2.65      -1.58      -0.43
C       7.92       3.35       0.96
C       8.40       1.58      -0.43
C       7.29      -1.74       0.99
C       3.76       1.74       0.99
C       7.93      -3.35       4.63
C       8.40      -1.58       6.01
C       3.12       3.35       4.63
C       2.65       1.58       6.01
C       3.76      -1.74       4.58
C       7.29       1.74       4.58
N       3.28      -2.03       0.68
N       7.77       2.03       0.68
N       7.77      -2.03       4.90
N       3.28       2.03       4.90
O       6.49      -1.04       1.77
O       4.56       1.04       1.77
O       4.56      -1.06       3.79
O       6.49       1.06       3.79
