14

Cu       5.27       7.70       0.99
O       5.49       5.97       0.08
O       4.33       6.62      -1.78
C       4.31      10.34       1.09
O       6.88       8.38       0.08
Cu       4.04       8.41      -0.99
O       5.74       9.05      -1.78
O       2.43       7.74      -0.08
O       3.57       7.06       1.78
C       2.50       7.22       1.09
C       6.81       8.90      -1.09
O       3.82      10.14      -0.08
O       4.98       9.49       1.78
C       5.00       5.77      -1.09
