600

H       1.35      11.71      23.32
H       1.58      11.84      20.96
H      39.63      11.09      22.87
H      39.87      11.24      20.52
H      40.30      13.52      19.03
H      40.52      15.88      18.81
H       2.24      15.41      18.24
H       2.02      13.07      18.48
H       1.05      11.49      16.50
H       2.58       9.93      15.56
H       2.55       7.76      19.16
H       1.02       9.28      20.08
H      40.95       9.05      19.31
H      40.81      12.28      16.60
H      39.21      11.12      15.31
H      39.36       7.88      18.01
H       1.18      17.59      17.83
H      40.70      10.72      25.03
H       3.38       6.76      17.09
H      37.93       9.11      14.83
H      40.56      30.52      23.34
H      40.29      30.40      20.98
H       2.32      30.50      22.85
H       2.04      30.37      20.50
H       1.59      28.38      18.77
H       1.29      26.02      18.74
H      39.55      26.56      18.81
H      39.85      28.90      18.85
H      40.68      30.29      16.60
H      39.17      31.86      15.63
H      39.61      34.36      18.99
H      41.12      32.81      19.94
H       1.17      32.75      19.44
H       0.87      29.77      16.48
H       2.45      30.93      15.15
H       2.73      33.92      18.12
H      40.44      24.35      19.03
H       1.31      31.10      25.02
H      38.63      35.21      16.92
H       3.85      32.88      14.76
H      30.26       1.37      50.90
H      30.13       1.60      48.54
H      30.86      39.65      50.45
H      30.70      39.88      48.11
H      28.43      40.31      46.61
H      26.07      40.53      46.39
H      26.54       2.25      45.83
H      28.88       2.03      46.07
H      30.45       1.06      44.08
H      32.02       2.58      43.13
H      34.21       2.55      46.72
H      32.68       1.02      47.65
H      32.90      40.96      46.89
H      29.68      40.83      44.18
H      30.84      39.22      42.89
H      34.07      39.37      45.59
H      24.37       1.20      45.42
H      31.25      40.72      52.61
H      35.21       3.38      44.63
H      32.85      37.94      42.42
H      11.43      40.57      50.95
H      11.54      40.30      48.60
H      11.48       2.33      50.46
H      11.60       2.05      48.11
H      13.57       1.60      46.37
H      15.94       1.31      46.33
H      15.39      39.56      46.44
H      13.05      39.86      46.48
H      11.67      40.67      44.22
H      10.11      39.16      43.25
H       7.59      39.64      46.60
H       9.13      41.14      47.55
H       9.21       1.19      47.06
H      12.18       0.87      44.08
H      11.01       2.44      42.76
H       8.04       2.76      45.73
H      17.61      40.46      46.64
H      10.87       1.33      52.63
H       6.75      38.64      44.53
H       9.08       3.86      42.36
H      40.73      11.92      33.36
H      40.43      11.84      35.72
H       2.45      11.40      33.89
H       2.15      11.33      36.22
H       1.68      13.53      37.73
H       1.44      15.89      37.95
H      39.72      15.40      38.44
H      39.96      13.06      38.19
H      40.92      11.48      40.19
H      39.30       9.98      41.07
H      39.35       7.82      37.45
H      40.97       9.29      36.59
H       1.06       9.06      37.38
H       1.16      12.26      40.12
H       2.80      11.13      41.38
H       2.69       7.91      38.65
H      40.76      17.58      38.88
H       1.56      11.96      31.70
H      37.95       7.05      39.25
H       4.31       9.25      41.68
H       1.26      30.41      33.32
H       1.59      30.50      35.67
H      39.53      30.10      33.94
H      39.86      30.18      36.27
H      40.34      28.37      38.09
H      40.66      26.01      38.12
H       2.38      26.58      37.77
H       2.07      28.92      37.73
H       1.32      30.27      40.05
H       2.88      31.81      40.97
H       2.29      34.36      37.67
H       0.73      32.84      36.77
H      40.67      32.69      37.21
H      41.12      29.83      40.27
H      39.50      30.97      41.57
H      39.05      33.83      38.51
H       1.51      24.35      37.71
H      40.41      29.93      31.71
H       3.65      35.11      39.51
H      37.81      32.71      41.79
H      11.92       1.23       5.77
H      11.84       1.53       8.13
H      11.36      39.51       6.31
H      11.31      39.81       8.64
H      13.53      40.28      10.14
H      15.89      40.52      10.36
H      15.40       2.24      10.86
H      13.06       2.00      10.61
H      11.48       1.03      12.61
H      10.04       2.73      13.47
H       7.89       2.72       9.84
H       9.30       1.02       9.00
H       9.05      40.92       9.80
H      12.26      40.79      12.53
H      11.13      39.14      13.79
H       7.90      39.29      11.07
H      17.58       1.20      11.29
H      11.90      40.39       4.12
H       7.49       4.48      11.52
H       9.24      37.65      14.10
H      30.38      40.70       5.72
H      30.48      40.38       8.07
H      30.10       2.44       6.32
H      30.19       2.11       8.66
H      28.37       1.62      10.46
H      26.01       1.31      10.50
H      26.58      39.58      10.18
H      28.91      39.90      10.13
H      30.28      40.66      12.45
H      31.81      39.09      13.36
H      34.35      39.66      10.05
H      32.83      41.23       9.15
H      32.69       1.29       9.61
H      29.82       0.85      12.66
H      30.96       2.47      13.96
H      33.84       2.91      10.91
H      24.35      40.46      10.10
H      29.88       1.54       4.10
H      35.11      38.31      11.89
H      32.71       4.16      14.18
H       7.72       6.76      13.13
H       6.23       2.50      14.78
H       4.54       2.96      14.97
H       5.66       3.09      16.34
H      33.99      34.99      13.31
H      35.61      39.34      14.56
H      37.32      38.89      14.59
H      36.36      38.83      16.08
H      35.10       7.84      40.82
H      39.41       6.29      42.24
H      38.96       4.59      42.37
H      38.87       5.64      43.80
H       6.97      33.99      40.93
H       2.62      35.62      42.18
H       3.07      37.33      42.20
H       3.13      36.36      43.69
H      35.00      35.28      44.12
H      35.24      39.39      41.64
H      36.87      39.12      41.01
H      35.45      38.65      40.05
H       7.11       6.69      44.04
H       6.62       2.48      41.79
H       4.98       2.77      41.22
H       6.36       3.15      40.17
H       6.68      34.84      16.44
H       2.47      35.34      14.18
H       2.77      36.98      13.62
H       3.15      35.60      12.57
H      35.27       6.96      16.52
H      39.38       6.72      14.05
H      39.12       5.09      13.42
H      38.65       6.51      12.46
H      40.47      22.14      19.89
H       1.85      23.21      17.15
H       1.76      21.76      16.14
H       2.78      21.77      17.59
H      19.82      40.48      47.49
H      18.75       1.86      44.75
H      20.19       1.77      43.74
H      20.18       2.79      45.19
H       1.50      22.14      36.87
H      40.08      23.21      39.54
H      40.15      21.76      40.56
H      39.15      21.77      39.09
H      22.13      40.47       9.27
H      23.20       1.88      11.95
H      21.76       1.80      12.97
H      21.77       2.81      11.50
H       1.48      12.80      29.50
H      40.16       9.99      30.63
H      40.25       8.98      29.19
H      39.20      10.41      29.21
H      40.41      29.22      29.49
H       1.83      31.89      30.63
H       1.77      32.91      29.19
H       2.77      31.44      29.21
H      29.13       1.48       1.88
H      31.99      40.21       3.02
H      33.00      40.31       1.58
H      31.59      39.24       1.60
H      12.71      40.42       1.92
H      10.10       1.87       3.05
H       9.08       1.83       1.61
H      10.56       2.81       1.63
C      39.09       9.38      16.53
C      39.54      10.68      16.17
C      40.48      11.38      16.96
C      41.02      10.84      18.16
C      40.57       9.53      18.49
C      39.63       8.82      17.71
C      42.17      11.50      18.93
C       0.91      10.63      18.44
C       1.39       9.50      19.16
C       2.29       8.57      18.60
C       2.76       8.70      17.27
C       2.31       9.82      16.54
C       1.40      10.75      17.10
C      42.33      13.01      18.70
C      41.98      11.46      20.46
C       0.65      11.67      21.34
C       0.51      11.60      22.75
C      41.69      11.36      23.34
C      40.57      11.24      22.48
C      40.72      11.31      21.08
C      41.23      13.90      18.84
C      41.36      15.30      18.72
C       0.19      15.90      18.48
C       1.30      15.03      18.38
C       1.16      13.63      18.51
C      41.51      11.20      24.72
C      38.20       8.68      15.69
C       3.52       7.67      16.72
C       0.37      17.29      18.32
C       2.79      32.54      16.50
C       2.22      31.31      16.08
C       1.29      30.61      16.88
C       0.90      31.07      18.16
C       1.46      32.32      18.56
C       2.39      33.02      17.77
C      42.16      30.44      18.94
C      41.01      31.32      18.43
C      40.67      32.54      19.07
C      39.79      33.48      18.49
C      39.20      33.25      17.22
C      39.52      32.04      16.57
C      40.42      31.11      17.15
C      41.97      28.93      18.72
C      42.35      30.48      20.46
C      41.24      30.43      21.35
C      41.40      30.49      22.75
C       0.25      30.55      23.34
C       1.36      30.49      22.47
C       1.20      30.43      21.07
C       0.63      28.02      18.72
C       0.46      26.61      18.72
C      41.60      26.03      18.74
C      40.51      26.92      18.76
C      40.68      28.32      18.76
C       0.45      30.70      24.71
C       3.65      33.26      15.66
C      38.44      34.27      16.64
C      41.37      24.64      18.82
C      32.57      39.10      44.11
C      31.28      39.55      43.75
C      30.58      40.49      44.54
C      31.11      41.02      45.74
C      32.43      40.58      46.07
C      33.13      39.63      45.30
C      30.46      42.18      46.51
C      31.32       0.92      46.01
C      32.46       1.39      46.73
C      33.39       2.29      46.17
C      33.26       2.76      44.84
C      32.13       2.31      44.11
C      31.20       1.41      44.68
C      28.95      42.34      46.28
C      30.50      42.00      48.04
C      30.29       0.67      48.92
C      30.36       0.53      50.32
C      30.60      41.70      50.92
C      30.72      40.59      50.06
C      30.64      40.73      48.67
C      28.06      41.24      46.42
C      26.65      41.37      46.31
C      26.05       0.20      46.07
C      26.92       1.31      45.97
C      28.32       1.17      46.09
C      30.76      41.53      52.30
C      33.27      38.21      43.28
C      34.29       3.52      44.28
C      24.67       0.38      45.91
C       9.41       2.79      44.11
C      10.64       2.22      43.68
C      11.34       1.30      44.48
C      10.88       0.91      45.77
C       9.64       1.48      46.18
C       8.94       2.40      45.38
C      11.52      42.17      46.55
C      10.64      41.02      46.04
C       9.41      40.69      46.68
C       8.47      39.80      46.10
C       8.70      39.21      44.84
C       9.92      39.53      44.19
C      10.85      40.42      44.77
C      13.03      41.98      46.33
C      11.48      42.36      48.07
C      11.51      41.25      48.97
C      11.46      41.41      50.37
C      11.41       0.27      50.95
C      11.48       1.38      50.08
C      11.54       1.21      48.68
C      13.94       0.65      46.33
C      15.34       0.47      46.32
C      15.93      41.62      46.35
C      15.03      40.52      46.38
C      13.63      40.70      46.39
C      11.27       0.47      52.33
C       8.70       3.66      43.26
C       7.69      38.45      44.25
C      17.31      41.38      46.42
C       2.94       9.41      40.14
C       2.47      10.69      40.52
C       1.50      11.37      39.75
C       0.97      10.84      38.55
C       1.43       9.53      38.20
C       2.40       8.84      38.96
C      42.25      11.49      37.77
C      41.07      10.62      38.25
C      40.59       9.51      37.51
C      39.63       8.61      38.03
C      39.12       8.76      39.35
C      39.61       9.84      40.11
C      40.57      10.74      39.58
C      42.08      13.01      38.02
C       0.02      11.48      36.25
C      41.37      11.71      35.35
C      41.55      11.76      33.95
C       0.40      11.62      33.37
C       1.49      11.46      34.25
C       1.31      11.40      35.65
C       0.75      13.90      37.91
C       0.61      15.31      38.02
C      41.77      15.90      38.24
C      40.66      15.02      38.32
C      40.81      13.63      38.19
C       0.63      11.73      32.00
C       3.89       8.74      40.94
C      38.21       7.81      39.84
C      41.58      17.28      38.40
C      39.08      32.51      40.17
C      39.71      31.33      40.64
C      40.66      30.64      39.85
C      41.02      31.07      38.55
C      40.41      32.28      38.11
C      39.46      32.97      38.89
C      42.18      30.44      37.77
C       0.91      31.33      38.25
C       1.21      32.57      37.63
C       2.13      33.48      38.17
C       2.78      33.24      39.40
C       2.47      32.02      40.06
C       1.55      31.11      39.51
C      42.39      28.93      38.00
C      41.97      30.45      36.25
C       0.63      30.46      35.33
C       0.43      30.40      33.93
C      41.57      30.29      33.38
C      40.48      30.22      34.28
C      40.68      30.28      35.67
C      41.30      28.02      38.08
C      41.48      26.61      38.09
C       0.34      26.03      37.98
C       1.43      26.94      37.88
C       1.24      28.33      37.87
C      41.33      30.19      32.00
C      38.16      33.19      40.99
C       3.63      34.22      39.95
C       0.58      24.65      37.92
C       9.40      39.02      12.56
C      10.69      39.49      12.93
C      11.37      40.46      12.17
C      10.83      41.00      10.97
C       9.52      40.54      10.63
C       8.83      39.57      11.38
C      11.49      42.15      10.19
C      10.63       0.90      10.67
C       9.52       1.40       9.92
C       8.66       2.40      10.43
C       8.83       2.92      11.73
C       9.89       2.39      12.51
C      10.75       1.40      11.99
C      13.00      42.31      10.43
C      11.47      41.94       8.66
C      11.71       0.58       7.77
C      11.75       0.41       6.37
C      11.60      41.56       5.79
C      11.43      40.47       6.67
C      11.38      40.65       8.07
C      13.90      41.21      10.32
C      15.30      41.35      10.44
C      15.90       0.19      10.65
C      15.02       1.30      10.73
C      13.62       1.15      10.60
C      11.70      41.32       4.41
C       8.74      38.07      13.35
C       7.97       3.92      12.19
C      17.28       0.38      10.81
C      32.51       2.88      12.57
C      31.32       2.26      13.03
C      30.64       1.30      12.24
C      31.07       0.94      10.94
C      32.28       1.55      10.51
C      32.97       2.50      11.28
C      30.43      42.21      10.16
C      31.33      41.06      10.64
C      32.56      40.74      10.01
C      33.48      39.83      10.55
C      33.23      39.18      11.79
C      32.02      39.49      12.45
C      31.10      40.42      11.90
C      28.93      42.01      10.39
C      30.45      42.43       8.64
C      30.44      41.34       7.72
C      30.38      41.53       6.32
C      30.28       0.39       5.77
C      30.22       1.48       6.67
C      30.28       1.28       8.06
C      28.01       0.66      10.46
C      26.61       0.48      10.47
C      26.03      41.62      10.38
C      26.93      40.53      10.29
C      28.33      40.72      10.28
C      30.17       0.63       4.39
C      33.18       3.80      13.38
C      34.21      38.33      12.33
C      24.64      41.39      10.31
C       5.85       4.61      14.89
C       6.87       5.01      13.99
C       6.99       6.40      13.75
C       5.18       6.90      15.21
C       5.56       3.21      15.26
C      36.03      37.23      14.73
C      34.93      36.78      13.95
C      34.77      35.38      13.85
C      36.69      34.97      15.19
C      36.34      38.65      15.00
C      37.30       5.88      42.40
C      36.87       6.95      41.57
C      35.47       7.09      41.39
C      35.03       5.20      42.78
C      38.72       5.59      42.72
C       4.73      36.04      42.35
C       5.18      34.94      41.57
C       6.58      34.77      41.47
C       6.99      36.70      42.81
C       3.30      36.35      42.61
C      35.92      37.35      41.64
C      35.22      36.94      42.81
C      35.45      35.63      43.27
C      36.93      35.18      41.45
C      35.86      38.71      41.06
C       6.02       4.54      41.72
C       6.78       4.98      42.83
C       6.61       6.32      43.23
C       5.06       6.73      41.46
C       6.00       3.16      41.20
C       4.54      35.94      14.12
C       4.97      35.17      15.23
C       6.31      35.35      15.63
C       6.72      36.89      13.87
C       3.15      35.96      13.60
C      37.34       6.04      14.05
C      36.94       6.74      15.22
C      35.62       6.51      15.67
C      35.18       5.03      13.85
C      38.70       6.10      13.47
C       0.72      21.57      17.97
C      42.18      22.37      18.64
C      41.19      21.65      19.36
C      42.10      19.54      18.72
C       1.84      22.12      17.17
C      20.38       0.73      45.57
C      19.59      42.19      46.24
C      20.31      41.20      46.96
C      22.42      42.11      46.31
C      19.84       1.85      44.77
C      41.23      21.57      38.75
C      42.21      22.37      38.09
C       0.78      21.65      37.39
C      42.29      19.54      38.02
C      40.09      22.12      39.53
C      21.57       0.74      11.15
C      22.36      42.19      10.50
C      21.65      41.19       9.79
C      19.53      42.11      10.43
C      22.11       1.87      11.93
C      41.26      10.83      28.98
C      42.23      11.52      29.75
C       0.76      12.25      29.02
C      42.27      11.59      26.94
C      40.16      10.01      29.54
C       0.70      31.10      28.97
C      42.14      30.44      29.75
C      41.15      29.74      29.01
C      42.10      30.38      26.93
C       1.83      31.88      29.54
C      31.15      41.29       1.37
C      30.43      42.25       2.14
C      29.69       0.78       1.41
C      30.37      42.29      54.52
C      31.98      40.21       1.93
C      10.87       0.74       1.39
C      11.52      42.17       2.17
C      12.20      41.16       1.44
C      11.58      42.12      54.55
C      10.11       1.87       1.96
N       6.16       7.29      14.36
N       5.05       5.56      15.46
N       4.40       7.82      15.79
N       7.70       4.12      13.44
N      35.64      34.53      14.46
N      36.86      36.32      15.31
N      37.49      34.07      15.79
N      34.04      37.59      13.37
N      34.61       6.23      41.99
N      36.37       5.06      42.97
N      34.12       4.41      43.36
N      37.71       7.83      41.03
N       7.43      35.64      42.07
N       5.64      36.86      42.92
N       7.88      37.50      43.40
N       4.37      34.04      40.98
N      36.28      34.79      42.59
N      36.73      36.45      41.02
N      37.77      34.40      40.77
N      34.45      37.76      43.55
N       5.77       7.15      42.55
N       5.20       5.43      41.08
N       4.21       7.50      40.79
N       7.56       4.18      43.57
N       7.14      36.18      14.95
N       5.43      36.76      13.49
N       7.50      37.75      13.20
N       4.17      34.39      15.97
N      34.79       5.68      14.99
N      36.45       5.23      13.42
N      34.39       4.19      13.17
N      37.75       7.51      15.96
N      41.18      20.29      19.37
N       0.63      20.21      18.03
N      42.02      18.20      18.79
N      42.25      23.72      18.61
N      21.67      41.19      46.97
N      21.75       0.65      45.63
N      23.76      42.03      46.38
N      18.24      42.26      46.21
N       0.79      20.29      37.38
N      41.31      20.21      38.69
N      42.37      18.20      37.95
N      42.13      23.72      38.12
N      20.28      41.18       9.78
N      20.20       0.65      11.10
N      18.20      42.02      10.36
N      23.72      42.26      10.52
N       0.76      12.27      27.67
N      41.32      10.89      27.62
N      42.32      11.66      25.61
N      42.18      11.49      31.09
N      41.15      29.73      27.66
N       0.64      31.04      27.61
N      42.04      30.31      25.60
N      42.19      30.46      31.09
N      29.68       0.77       0.05
N      31.09      41.35       0.01
N      30.30      42.34      53.19
N      30.46      42.20       3.48
N      12.21      41.16       0.08
N      10.93       0.67       0.03
N      11.65      42.05      53.22
N      11.49      42.22       3.51
