51

C       1.31       2.78      12.82
C       3.99      -6.45      11.84
H       2.04      -4.01      10.44
H       0.76       1.52       9.18
C       2.14       3.24      11.79
C      -3.10      -5.41      15.24
H      -2.66      -1.39      11.12
C       0.30       1.85      12.54
C      -3.84      -7.73      15.85
H      -0.14      -4.45      12.85
C       2.59      -4.57      11.20
H       3.27      -6.08       9.83
C       4.01      -5.97      13.17
C      -2.78      -4.80      12.93
C      -0.27      -3.45      12.46
H       1.53      -0.60      11.88
C      -0.59      -0.85      11.46
H       2.58       3.19       9.69
C       1.92       2.81      10.47
O       3.58       4.36      13.30
H      -3.52      -8.10      13.20
O       5.26      -8.38      12.46
H       1.48       3.13      13.83
H      -2.55      -3.42      14.59
H      -3.00      -6.36      11.47
O      -0.81       0.41      10.93
O       2.05      -2.91      12.91
O       4.89      -8.11      10.31
H      -3.13      -5.16      16.30
H      -0.34       1.47      13.33
H       3.36      -4.42      14.52
H       4.55      -6.53      13.92
O      -2.60      -3.85      11.92
O      -3.81      -7.47      17.09
C      -1.51      -3.00      11.99
C       3.27      -5.74      10.87
O      -4.28      -8.87      15.43
C       3.34      -4.80      13.51
C      -2.78      -4.44      14.29
C      -3.33      -7.07      13.49
O       3.95       4.54      11.05
C       2.63      -4.11      12.52
C       3.31       4.13      12.07
C      -1.69      -1.71      11.48
C       0.67      -1.26      11.91
C      -3.03      -6.11      12.53
C      -3.39      -6.73      14.85
C       0.14       1.39      11.23
C       0.81      -2.56      12.40
C       4.73      -7.69      11.52
C       0.92       1.89      10.19
