22

O      -0.68      13.16       0.63
O      -2.79      13.72       1.27
C      -1.52      13.87       1.28
C      -0.98      14.95       2.18
C       0.39      15.24       2.23
C       0.88      16.17       3.15
C       0.01      16.80       4.06
C      -1.37      16.53       3.98
C      -1.85      15.62       3.04
C       0.51      17.70       5.12
C       1.42      18.74       4.89
C       1.38      19.32       7.10
C       0.06      17.55       6.44
H       1.07      14.72       1.56
H       1.95      16.38       3.20
H      -2.05      17.04       4.66
H      -2.92      15.41       2.97
H       1.79      18.95       3.88
H       1.73      19.94       7.92
H      -0.62      16.75       6.73
N       1.87      19.54       5.88
N       0.48      18.37       7.43
