22

O      -6.35      17.27       8.46
O      -8.47      16.45       8.63
C      -7.35      16.60       8.03
C      -7.20      15.93       6.71
C      -6.05      16.13       5.93
C      -5.92      15.52       4.69
C      -6.95      14.70       4.19
C      -8.10      14.48       4.98
C      -8.22      15.10       6.22
C      -6.86      14.06       2.87
C      -5.67      13.52       2.35
C      -6.78      12.85       0.44
C      -7.98      13.96       2.05
H      -5.27      16.78       6.32
H      -5.04      15.71       4.07
H      -8.88      13.82       4.62
H      -9.11      14.95       6.84
H      -4.73      13.54       2.90
H      -6.76      12.34      -0.52
H      -8.95      14.37       2.36
N      -5.64      12.93       1.14
N      -7.96      13.35       0.85
