22

O       5.78      -1.30      19.94
O       7.89      -1.87      19.30
H       4.03      -2.86      19.02
H       3.15      -4.52      17.37
H       7.15      -5.18      15.92
H       8.02      -3.56      17.61
H       3.31      -7.10      16.69
H       3.37      -8.09      12.65
H       5.72      -4.89      13.85
C       6.62      -2.01      19.29
N       3.23      -7.68      14.70
C       6.08      -3.09      18.39
C       4.71      -3.39      18.35
C       4.22      -4.32      17.42
C       5.09      -4.94      16.52
C       6.47      -4.67      16.59
C       6.95      -3.77      17.53
C       4.59      -5.84      15.46
C       3.68      -6.88      15.68
C       5.04      -5.69      14.14
N       4.62      -6.51      13.15
C       3.72      -7.46      13.48
