22

O      -1.27      10.51       1.35
O      -3.38      11.09       1.98
C      -2.27      10.49       2.15
C      -2.12       9.69       3.40
C      -0.97       8.92       3.61
C      -0.84       8.15       4.76
C      -1.87       8.14       5.73
C      -3.02       8.92       5.52
C      -3.15       9.69       4.36
C      -1.77       7.31       6.94
C      -0.59       7.13       7.67
C      -1.70       5.82       9.21
C      -2.90       6.66       7.44
H      -0.20       8.93       2.85
H       0.04       7.53       4.90
H      -3.80       8.94       6.27
H      -4.03      10.29       4.19
H       0.35       7.59       7.38
H      -1.68       5.24      10.13
H      -3.86       6.73       6.93
N      -0.56       6.39       8.79
N      -2.88       5.92       8.57
