22

N       6.95       7.19       0.69
N       5.55       9.11       0.93
O       4.41       5.83       8.84
O       2.30       6.08       8.03
H       6.79       8.75      -0.68
H       6.16       5.86       7.03
C       3.58       6.03       7.90
C       4.11       6.27       6.52
H       3.03       7.38       3.48
C       5.97       6.50       4.97
C       5.09       6.98       3.97
H       7.03       6.45       4.77
C       5.59       7.45       2.67
C       6.51       6.73       1.88
C       6.46       8.35       0.27
C       5.14       8.66       2.14
C       5.48       6.17       6.24
H       2.17       6.72       5.73
H       6.88       5.76       2.20
C       3.71       7.04       4.25
H       4.46       9.31       2.69
C       3.23       6.68       5.51
