10

O       3.93      10.30       7.56
O       1.67      10.55       7.82
O       5.01       7.22      11.36
O       2.76       6.99      11.10
H       1.82       8.75       9.59
H       4.91       8.83       9.38
C       2.81      10.05       8.12
C       2.80       9.05       9.22
C       3.93       8.52       9.73
C       3.89       7.50      10.81
