10

O       2.87       7.10       1.30
O       5.13       6.85       1.56
O       1.79      10.18       5.09
H       1.89       8.57       3.11
H       4.98       8.65       3.33
O       4.04      10.41       4.84
C       3.99       7.35       1.86
C       4.00       8.35       2.96
C       2.88       8.88       3.47
C       2.91       9.90       4.54
