38

Zn       6.06       4.50       5.14
Zn       3.06       4.20       5.45
H       0.76       5.35       4.29
H       5.22       6.76       2.37
H       5.47       0.10       1.06
H       6.12       0.22       9.18
H       5.77       6.82       8.03
H       3.97       2.56       9.44
H       2.73       0.16       5.44
H       6.39       8.55       5.13
H       8.36       3.36       6.30
C       4.37       6.87       5.33
C       4.75       1.83       5.26
C       4.76       4.41       7.83
C       5.18       6.68       1.30
C       5.63       7.78       0.56
C       6.34       7.91       9.76
C       5.84       6.79       9.11
C       5.41       5.65       9.84
C       4.68       5.53       0.65
C       4.21       4.40       1.36
C       3.65       3.29       0.72
C       4.38       3.42       9.95
C       4.88       4.50       9.23
C       4.27       8.27       5.34
C       4.85       0.43       5.24
C       4.35       4.34       2.76
N       1.06       4.00       5.65
N       8.06       4.71       4.94
Cl       3.05       1.88       1.60
O       5.55       6.39       5.21
O       3.30       6.16       5.44
O       5.54       4.44       3.24
O       3.29       4.21       3.47
O       5.82       2.54       5.15
O       3.57       2.31       5.38
O       5.83       4.49       7.12
O       3.58       4.27       7.35
