394

Cd      11.97      13.31      12.92
Cd      11.32       9.94      14.37
Cd      29.02       9.41      22.09
Cd      28.37      12.78      20.64
Cd      22.10       1.84      10.42
Cd      22.75       5.21       8.97
Cd       5.05       5.74       1.25
Cd       5.70       2.37       2.71
Cd       4.25      -1.56      11.67
Cd       4.26       9.13       0.00
H      21.22      14.65      11.06
H      19.68      14.87       7.06
H      23.21      12.53       7.87
H      21.96      12.76      12.15
H      23.69      11.87      13.72
H      26.72      12.40      10.72
H      25.00      13.29       9.15
H      11.06      -1.00       8.12
H       9.04       0.33       8.79
H      16.57      15.64      11.74
H      18.60      14.31      11.10
H      20.82      15.12       5.09
H      20.74      14.33       2.73
H      22.00      10.43       3.99
H      22.12      11.20       6.34
H      26.74       3.23      19.88
H      24.29       2.25      16.47
H       8.18      -0.75      19.39
H      10.18      -1.16      20.32
H      11.45      -1.78      22.38
H      19.16       5.19       0.73
H      26.40       2.71      22.05
H      26.41       5.21      19.38
H      27.31       7.26      18.32
H       9.27       5.69      14.44
H       8.40       3.62      15.48
H      23.02      -1.36      18.68
H      30.38      15.21      17.25
H       6.61      -1.31      13.74
H       7.75       0.37      15.15
H      12.71      11.19       0.61
H      11.17      10.98       4.61
H      14.70      13.30       3.80
H      21.95       9.96      22.86
H      23.68      10.83      21.28
H      18.20      13.43       0.93
H      16.49      12.56       2.51
H      11.06       8.58       3.55
H       9.04       7.25       2.90
H      16.55       7.08      23.30
H      10.08      11.52       0.57
H      12.30      10.72       6.58
H      12.21      11.52       8.94
H      13.48      15.42       7.68
H      13.61      14.64       5.33
H      18.22       1.21      15.13
H      15.77       2.19      18.54
H      16.71       5.20      15.63
H      18.71       5.60      14.68
H      19.98       6.22      12.63
H      19.14       2.36      10.94
H      17.87       1.74      12.97
H      17.89      -0.76      15.63
H      27.31      15.46      16.70
H      17.80      -1.23      20.58
H      16.93       0.83      19.53
H      14.51       5.81      16.35
H      13.36       7.50      17.77
H      15.14       5.74      21.28
H      16.28       4.07      19.87
H      12.84       0.50      12.29
H      14.38       0.28      16.29
H      10.86       2.62      15.47
H      12.10       2.39      11.20
H      10.37       3.28       9.62
H       7.35       2.75      12.62
H       9.07       1.86      14.20
H      23.01      16.15      15.23
H      25.02      14.82      14.55
H      17.50      -0.49      11.61
H      15.46       0.84      12.25
H      13.24       0.02      18.25
H      13.33       0.82      20.62
H      12.06       4.72      19.36
H      11.95       3.95      17.00
H       7.32      11.91       3.46
H       9.78      12.90       6.87
H      25.88      15.90       3.96
H      23.88      16.30       3.02
H      22.61      16.93       0.97
H      14.91       9.96      22.62
H       7.67      12.44       1.30
H       7.65       9.94       3.96
H       6.76       7.89       5.03
H      24.80       9.46       8.91
H      25.66      11.53       7.86
H      11.04      16.51       4.66
H       3.69      -0.06       6.09
H      27.46      16.46       9.60
H      26.31      14.78       8.20
H      21.35       3.96      22.74
H      22.90       4.17      18.74
H      19.37       1.85      19.55
H      12.11       5.19       0.48
H      10.39       4.32       2.07
H      15.86       1.72      22.42
H      17.58       2.59      20.83
H      23.00       6.57      19.79
H      25.03       7.90      20.44
H      17.52       8.07       0.05
H      23.99       3.63      22.78
H      21.76       4.43      16.77
H      21.86       3.63      14.41
H      20.58      -0.27      15.67
H      20.46       0.51      18.02
H      15.85      13.93       8.21
H      18.29      12.95       4.80
H      17.36       9.95       7.71
H      15.36       9.55       8.66
H      14.09       8.93      10.71
H      14.93      12.79      12.41
H      16.19      13.41      10.38
H      16.18      15.91       7.71
H       6.76      -0.31       6.65
H      16.27      16.38       2.77
H      17.14      14.32       3.81
H      19.56       9.34       7.00
H      20.71       7.65       5.57
H      18.93       9.41       2.06
H      17.78      11.08       3.48
C      22.34      13.54       9.57
C      21.28      14.36      10.01
C      20.34      14.86       9.10
C      20.45      14.52       7.75
C      21.46      13.66       7.29
C      22.41      13.19       8.21
C      23.36      13.07      10.53
C      23.00      12.69      11.84
C      23.96      12.20      12.72
C      25.30      12.07      12.32
C      25.67      12.47      11.02
C      24.71      12.96      10.14
C      19.21      15.70       9.56
C      18.92      16.91       8.91
C       9.29      -0.61       9.29
C       8.43      -1.08      10.29
C      17.25      15.99      10.96
C      18.38      15.26      10.61
C      21.47      13.22       5.89
C      21.07      14.09       4.85
C      21.03      13.66       3.54
C      21.36      12.33       3.22
C      21.76      11.46       4.24
C      21.83      11.90       5.56
C      26.30      11.47      13.24
C       7.16      -0.36      10.61
C      21.27      11.84       1.80
C      26.01       1.22      19.81
C      26.13       2.53      19.33
C      25.56       2.92      18.10
C      24.81       1.96      17.39
C      24.68       0.64      17.83
C      25.29       0.28      19.05
C       9.67       0.82      21.04
C      10.25      -0.46      21.16
C      10.97      -0.81      22.29
C       2.60       3.21       0.00
C      27.55       1.37      23.26
C      26.85       1.72      22.12
C      25.89       4.23      17.52
C      26.40       5.29      18.30
C      26.90       6.45      17.71
C      26.88       6.58      16.31
C       9.29       5.56      15.52
C      25.84       4.41      16.12
C      23.98      -0.37      17.02
C      23.17      -1.36      17.60
C      31.03      15.96      16.81
C      14.15      15.99      15.42
C       6.47      -1.31      14.82
C       7.10      -0.36      15.62
C       3.49       2.87       1.15
C      10.40       7.78      15.62
C      13.42      14.99      14.58
C      13.83      12.30       2.09
C      12.77      11.48       1.66
C      11.82      10.98       2.56
C      11.93      11.32       3.92
C      12.95      12.18       4.38
C      13.90      12.65       3.45
C      14.85      12.77       1.14
C      22.99      10.02      23.17
C      23.95      10.51      22.28
C      25.29      10.63      22.68
C      17.16      13.35       0.63
C      16.20      12.87       1.52
C      10.69      10.14       2.11
C      10.40       8.93       2.76
C       9.28       8.19       2.40
C       8.42       8.66       1.40
C       8.72       9.85       0.72
C       9.86      10.58       1.07
C      12.96      12.62       5.78
C      12.56      11.75       6.82
C      12.50      12.19       8.13
C      12.83      13.52       8.45
C      13.24      14.39       7.43
C      13.32      13.95       6.11
C      26.28      11.24      21.75
C       7.15       7.93       1.09
C      12.73      14.01       9.87
C      17.49       3.23      15.21
C      17.60       1.92      15.68
C      17.04       1.53      16.91
C      16.29       2.48      17.63
C      16.17       3.81      17.18
C      16.78       4.17      15.97
C      18.19       3.63      13.97
C      18.78       4.91      13.85
C      19.50       5.25      12.71
C      19.64       4.34      11.66
C      19.04       3.07      11.76
C      18.33       2.72      12.90
C      17.37       0.22      17.50
C      17.88      -0.85      16.72
C      18.38      -2.00      17.31
C      18.37      -2.13      18.71
C      17.81      -1.11      19.50
C      17.32       0.04      18.90
C      15.47       4.81      18.01
C      14.66       5.80      17.42
C      14.01       6.75      18.22
C      14.17       6.72      19.61
C      15.00       5.75      20.20
C      15.63       4.81      19.41
C      20.53       4.68      10.51
C      27.44      14.93      19.40
C      13.45       7.72      20.45
C      11.72       1.61      13.77
C      12.78       0.79      13.33
C      13.73       0.29      14.24
C      13.62       0.63      15.60
C      12.60       1.49      16.05
C      11.65       1.96      15.13
C      10.71       2.08      12.82
C      11.06       2.45      11.51
C      10.11       2.95      10.63
C       8.77       3.07      11.03
C       8.39       2.67      12.32
C       9.35       2.19      13.20
C      14.86      -0.55      13.79
C      15.15      -1.76      14.43
C      24.78      15.76      14.06
C      25.64      16.23      13.05
C      16.81      -0.84      12.38
C      15.68      -0.11      12.74
C      12.59       1.93      17.46
C      12.99       1.05      18.49
C      13.04       1.49      19.81
C      12.71       2.82      20.13
C      12.30       3.69      19.11
C      12.24       3.25      17.79
C       7.77       3.68      10.10
C      26.91      15.51      12.74
C      12.80       3.31      21.54
C       8.05      13.93       3.54
C       7.94      12.62       4.01
C       8.50      12.23       5.24
C       9.26      13.18       5.96
C       9.38      14.51       5.51
C       8.77      14.87       4.30
C      24.40      14.33       2.30
C      23.82      15.61       2.19
C      23.10      15.96       1.05
C      31.46      11.93      23.34
C       6.51      13.78       0.09
C       7.22      13.42       1.23
C       8.17      10.92       5.83
C       7.67       9.86       5.05
C       7.17       8.70       5.64
C       7.18       8.57       7.04
C      24.78       9.59       7.83
C       8.23      10.74       7.23
C      10.08      15.52       6.33
C      10.90      16.51       5.74
C       3.03      -0.81       6.53
C      19.91      -0.84       7.93
C      27.60      16.46       8.52
C      26.97      15.51       7.73
C      30.58      12.28      22.20
C      23.66       7.37       7.73
C      20.65       0.15       8.76
C      20.24       2.85      21.25
C      21.30       3.67      21.69
C      22.24       4.17      20.78
C      22.13       3.83      19.43
C      21.11       2.97      18.97
C      20.16       2.50      19.89
C      19.22       2.38      22.21
C      11.07       5.13       0.18
C      10.12       4.64       1.06
C       8.78       4.52       0.66
C      16.91       1.79      22.72
C      17.87       2.27      21.83
C      23.37       5.01      21.23
C      23.67       6.22      20.58
C      24.79       6.96      20.94
C      25.65       6.49      21.95
C      25.34       5.30      22.62
C      24.21       4.57      22.28
C      21.11       2.53      17.57
C      21.51       3.40      16.53
C      21.57       2.96      15.21
C      21.24       1.63      14.90
C      20.82       0.76      15.92
C      20.75       1.20      17.23
C       7.79       3.91       1.60
C      26.92       7.22      22.25
C      21.34       1.14      13.48
C      16.57      11.92       8.14
C      16.46      13.23       7.66
C      17.02      13.62       6.43
C      17.78      12.67       5.71
C      17.90      11.34       6.16
C      17.29      10.98       7.38
C      15.88      11.52       9.38
C      15.29      10.24       9.49
C      14.57       9.89      10.63
C      14.42      10.81      11.69
C      15.03      12.08      11.59
C      15.74      12.43      10.45
C      16.69      14.93       5.85
C      16.19      15.99       6.63
C      15.69      17.15       6.04
C      15.70      17.28       4.64
C      16.25      16.26       3.85
C      16.75      15.11       4.45
C      18.60      10.34       5.34
C      19.41       9.34       5.92
C      20.06       8.40       5.13
C      19.90       8.43       3.73
C      19.07       9.39       3.14
C      18.44      10.34       3.94
C      13.54      10.47      12.83
C       6.62       0.21       3.95
C      20.62       7.43       2.90
O      27.54      11.45      12.84
O      25.95      10.95      14.33
O       6.89       0.66       9.88
O       6.43      -0.81      11.55
O      20.65      12.61       0.99
O      21.82      10.72       1.55
O       3.91       1.68       1.29
O       3.86       3.81       1.96
O      11.11       8.63      16.27
O      10.17       7.92      14.38
O      29.79      14.09      15.13
O      13.50      15.08      13.28
O      27.53      11.25      22.13
O      25.92      11.78      20.68
O       6.87       6.94       1.85
O       6.44       8.35       0.12
O      12.10      13.25      10.68
O      13.28      15.13      10.12
O      20.97       5.86      10.39
O      20.89       3.74       9.70
O      28.17      14.09      18.75
O      27.19      14.78      20.64
O      12.80       8.66      19.90
O      13.50       7.61      21.75
O       6.52       3.70      10.51
O       8.11       4.20       9.02
O      27.18      14.49      13.47
O      27.63      15.95      11.79
O      13.42       2.54      22.36
O      12.25       4.43      21.80
O      30.15      13.47      22.06
O      30.21      11.34      21.39
O      22.96       6.52       7.07
O      23.90       7.23       8.97
O       4.28       1.06       8.21
O      20.56       0.07      10.06
O       6.53       3.89       1.22
O       8.15       3.37       2.67
O      27.20       8.21      21.50
O      27.63       6.80      23.23
O      21.97       1.89      12.67
O      20.79       0.02      13.22
O      13.10       9.29      12.96
O      13.17      11.41      13.65
O       5.90       1.05       4.60
O       6.88       0.37       2.71
O      21.26       6.49       3.45
O      20.56       7.53       1.60
