24

Cd       6.02       7.54      28.32
N       6.02       3.75      31.01
Cd       4.09       5.12      30.91
N       2.34       6.71      31.00
C       7.25       4.24      31.25
N       4.10       8.91      28.23
C       5.86       2.43      30.85
C       2.54       8.01      31.25
C       1.07       6.27      30.85
O       6.08       7.54      26.04
O       6.96       8.71      30.17
O       5.65       7.01      30.77
O       3.16       3.95      29.06
O       4.46       5.66      28.46
O       4.04       5.13      33.20
C       2.87       8.42      27.98
C       4.25      10.24      28.38
C       6.84       8.56      25.87
C       7.57       4.65      27.98
C       9.04       6.40      28.39
C       6.41       8.00      31.07
C       3.71       4.67      28.16
C       3.28       4.11      33.36
N       7.78       5.96      28.23
