62

K       6.55      -3.46      15.86
K      13.64     -11.29      16.11
La      10.58      -5.11      16.25
La      13.12      -1.75      15.91
O      12.76       0.47      16.78
La       9.61      -9.64      15.72
La       4.24       3.41      16.06
O      10.11     -10.76      13.43
C       3.19      -4.79      17.27
C       4.17      -5.87      17.50
C       5.25       0.09      15.25
C      12.72      -4.46      12.43
C       7.58      -6.82      16.87
C       8.72      -0.72      14.75
C       6.17      -6.81      17.29
C       9.75      -1.73      15.07
C      10.84      -2.99      18.51
C       6.67       0.12      14.86
C      12.86      -3.60      13.62
C       9.18      -6.69      13.61
C       6.21      -9.96      14.70
C      16.02      -8.89      14.47
C      12.12       1.57      16.72
C       4.65       6.12      19.54
C      12.61      -7.93      15.09
C      11.48     -14.03      17.22
C      14.03      -7.94      14.68
C      10.44     -13.02      16.90
C       9.35     -11.76      13.46
C      10.70       1.54      17.11
C       4.51       5.26      18.35
C      11.01      -8.06      18.36
O       8.13      -7.96      16.82
O       3.63      -3.66      16.82
O      12.78      -5.10      17.50
O       9.59      -7.76      14.17
O       9.37      -2.86      15.51
O       5.48      -5.63      17.13
O       7.42      -1.00      15.14
O       8.11      -5.69      16.60
O      12.22      -3.92      14.69
O       4.75      -1.04      15.62
O      10.95      -1.33      14.89
O       9.35      -5.51      14.05
O      13.62      -2.58      13.57
O      11.53      -2.65      17.47
O       4.61       1.18      15.19
O      10.08      -4.00      18.54
O      12.06      -6.79      15.15
O       2.95       5.32      15.15
O       7.41      -9.66      14.46
O      10.61      -6.99      17.80
O      10.82     -11.89      16.46
O      14.71      -9.12      14.83
O      12.77     -13.75      16.83
O      12.08      -9.06      15.37
O       7.97     -10.83      17.28
O       1.83       2.69      16.35
O       6.41       2.99      17.08
O      10.84      -9.24      17.92
O       3.75       4.24      18.40
O       5.84       4.31      14.50
