13

O       2.54       8.12      17.40
C      -2.44       7.71      18.60
H       1.39       6.55      21.12
O       3.41       7.55      19.44
C       0.72       6.88      20.34
O      -2.52       8.12      17.40
C       2.45       7.71      18.60
C      -1.09       7.40      19.13
O      -3.39       7.55      19.44
C       1.11       7.40      19.13
H      -1.38       6.55      21.12
C      -0.70       6.88      20.34
O       0.01       7.71      18.37
