13

C      -3.40      14.02      33.30
C      -2.75      14.10      34.51
C      -4.25      10.87      35.03
O      -4.87      10.12      34.20
H      -4.72      12.37      32.51
O      -3.03      12.99      35.27
C      -1.80      15.10      35.03
H      -3.34      14.76      32.51
O      -1.47      16.01      34.20
O      -3.94      10.59      36.23
O      -1.41      14.98      36.23
C      -4.10      12.79      33.30
C      -3.85      12.19      34.51
