13

H      11.44       9.14      23.43
H      13.57       5.39      23.46
O      11.17       7.76      25.59
H      14.40       5.95      21.14
H      12.36       9.53      21.10
C      12.10       8.42      22.96
C      11.84       6.88      24.93
N      13.41       7.76      21.06
C      12.60       8.64      21.68
C      13.29       6.32      22.97
C      13.76       6.62      21.70
C      12.44       7.23      23.62
O      11.98       5.66      25.31
