13

C       7.35       8.42      30.68
C       6.85       8.64      31.96
C       7.61       6.88      28.71
H       5.05       5.95      32.50
N       6.04       7.76      32.58
C       5.70       6.62      31.94
H       8.02       9.14      30.21
O       8.28       7.77      28.05
O       7.47       5.66      28.33
C       6.16       6.32      30.67
H       5.89       5.39      30.18
H       7.10       9.54      32.53
C       7.01       7.23      30.02
