13

O       1.15      13.55       7.71
C       0.05      14.39       5.74
C       1.20      15.23       3.80
O      -1.08      13.20       7.43
H       2.21      14.47       5.55
C      -1.13      15.22       3.82
C      -1.16      14.67       5.09
C       1.25      14.69       5.08
N       0.03      15.49       3.18
H      -2.11      14.44       5.58
H      -2.04      15.44       3.26
C       0.05      13.69       7.05
H       2.09      15.46       3.23
