48

H       9.66       3.04       9.45
H       8.07       1.19       9.66
H      14.35       6.69       7.13
H      12.48       5.15       7.71
H      13.58       5.64      11.86
H       9.54       0.27      13.58
H      11.13       2.20      13.41
H      15.35       7.18      11.13
H      11.24       4.14       9.35
C      10.53       2.73      11.42
C      11.57       3.80      11.39
C       9.66       2.44      10.36
C       8.76       1.39      10.47
C      14.14       6.43       8.17
C      13.11       5.58       8.49
C      13.70       5.86      10.81
C      12.86       5.26       9.85
C       9.55       0.90      12.70
C      10.45       1.96      12.60
C       8.71       0.58      11.62
C      14.70       6.71      10.39
H       6.86      -3.04       9.45
H       8.45      -1.19       9.66
H       2.16      -6.69       7.13
H       4.04      -5.15       7.71
H       2.94      -5.64      11.86
H       6.97      -0.27      13.58
H       5.39      -2.20      13.41
H       1.17      -7.18      11.13
H       5.28      -4.14       9.35
N      14.95       7.00       9.10
N      11.84       4.37      10.15
N       1.57      -7.00       9.10
N       4.68      -4.37      10.15
C       5.99      -2.73      11.42
C       4.95      -3.80      11.39
C       6.86      -2.44      10.36
C       7.76      -1.39      10.47
C       2.37      -6.43       8.17
C       3.41      -5.58       8.49
C       2.82      -5.86      10.81
C       3.66      -5.26       9.85
C       6.97      -0.90      12.70
C       6.07      -1.96      12.60
C       7.81      -0.58      11.62
C       1.81      -6.71      10.39
O      12.19       4.11      12.41
O       4.33      -4.11      12.41
