16

C      -1.06      10.19       4.32
O       0.35      10.09       1.83
O      -1.38      11.03       0.76
O      -1.95      10.04       7.88
O      -0.27       9.01       6.81
H      -3.19      11.78       2.19
C      -0.84      10.61       1.82
C      -1.57      10.72       3.12
C      -2.80      11.40       3.13
C      -1.31       9.78       6.82
C      -1.78      10.36       5.52
C      -2.98      11.08       5.51
H      -3.50      11.23       6.46
H      -4.44      12.14       4.32
H      -0.12       9.64       4.32
C      -3.50      11.59       4.32
