16

C       8.27       6.03      21.58
C       8.27       8.84      21.58
C       8.45       8.13      20.39
C       8.74       6.03      19.08
C       8.48       6.73      20.39
H       8.27       9.92      21.58
H       8.27       4.94      21.58
H       7.96       8.66      23.71
H       8.58       8.65      19.44
O       8.88       4.75      19.10
O       8.84       6.72      18.03
C       7.79       6.04      24.08
C       8.06       6.73      22.78
C       8.08       8.13      22.77
O       7.65       4.75      24.07
O       7.70       6.72      25.13
