48

C       2.28      11.61       5.84
C       3.32      10.54       5.88
C       1.41      11.90       6.91
C       0.51      12.95       6.80
C       5.90       7.91       9.11
C       4.86       8.76       8.78
C       5.45       8.48       6.47
C       4.61       9.08       7.43
C       1.31      13.44       4.57
C       2.20      12.38       4.67
C       0.46      13.76       5.65
C       6.46       7.63       6.88
O      -3.91      18.45       4.85
C      -2.25      17.08       5.84
C      -3.29      18.15       5.88
C      -1.38      16.79       6.91
C      -0.48      15.74       6.80
C      -5.86      20.78       9.11
C      -4.83      19.93       8.78
C      -5.42      20.21       6.47
C      -4.58      19.61       7.43
C      -1.28      15.25       4.57
C      -2.17      16.31       4.67
C      -0.43      14.93       5.65
C      -6.43      21.06       6.88
O       3.94      10.24       4.85
H       1.41      11.31       7.82
H      -0.18      13.16       7.61
H       6.10       7.65      10.15
H       4.23       9.19       9.56
H       5.33       8.69       5.41
N       3.59       9.97       7.12
H       2.88      12.14       3.85
N       6.70       7.34       8.18
H       2.98      10.20       7.92
H       7.11       7.16       6.15
H       1.30      14.07       3.68
N      -3.56      18.72       7.12
N      -6.67      21.35       8.18
H      -1.38      17.38       7.82
H       0.21      15.53       7.61
H      -6.07      21.04      10.15
H      -4.20      19.50       9.56
H      -5.30      20.00       5.41
H      -1.27      14.62       3.68
H      -2.85      16.55       3.85
H      -7.08      21.53       6.15
H      -2.95      18.49       7.92
