48

H       6.06       4.43      18.08
H       5.26       6.74      18.29
H       6.86      -1.46      15.76
H       6.47       0.94      16.34
H       6.35      -0.26      20.49
H       3.73       5.93      22.22
H       4.60       3.59      22.05
H       6.79      -2.57      19.76
H       6.22       2.52      17.98
C       5.36       3.84      20.06
C       5.76       2.40      20.02
C       5.55       4.73      19.00
C       5.09       6.04      19.10
C       6.75      -1.15      16.80
C       6.52       0.18      17.12
C       6.47      -0.47      19.44
C       6.37       0.55      18.48
C       4.27       5.60      21.33
C       4.74       4.30      21.24
C       4.42       6.49      20.25
C       6.70      -1.77      19.03
H       2.22       9.91      18.08
H       3.01       7.60      18.29
H       1.41      15.80      15.76
H       1.80      13.41      16.34
H       1.93      14.60      20.49
H       4.55       8.42      22.22
H       3.68      10.76      22.05
H       1.49      16.91      19.76
H       2.06      11.82      17.98
C       2.91      10.51      20.06
C       2.52      11.94      20.02
C       2.73       9.61      19.00
C       3.19       8.30      19.10
N       6.12       1.88      18.78
N       6.84      -2.12      17.73
C       1.75      14.16      17.12
C       1.90      13.79      18.48
C       4.01       8.74      21.33
C       3.54      10.05      21.24
C       3.86       7.85      20.25
N       2.16      12.46      18.78
C       1.80      14.81      19.44
C       1.53      15.49      16.80
C       1.57      16.11      19.03
N       1.44      16.47      17.73
O       5.71       1.71      21.05
O       2.56      12.64      21.05
