496

C      -3.66      28.76       0.90
C     -13.81      13.65      25.34
C      -5.24      28.85       0.89
C       4.82       0.12       0.10
C     -15.86      15.00      24.57
C     -14.29      14.86      24.46
C      -3.08     -13.80      25.10
C       7.07       1.39       0.64
C       5.50       1.39       0.71
C       7.54       0.13       1.46
C      -2.78      20.42       6.43
C      -1.64      19.42       5.99
C      -2.30      21.09       7.77
C      -2.05      20.06       8.92
C      -0.97      19.04       8.45
C      -1.33      18.33       7.09
C      -2.68      17.55       7.33
C      -3.84      18.48       7.81
C      -3.38      19.26       9.10
C      -4.07      19.56       6.70
C       9.28      11.89       6.55
C       7.95      12.64       6.98
C       9.75      12.58       5.20
C       8.70      12.46       4.06
C       7.37      13.15       4.53
C       6.83      12.56       5.89
C       6.53      11.03       5.64
C       7.80      10.24       5.16
C       8.38      10.94       3.88
C       8.90      10.39       6.28
C      17.43      13.84      12.08
C      17.16      14.22      13.59
C      18.05      12.39      12.09
C      19.39      12.30      12.88
C     -12.66      12.74      14.36
C     -13.31      14.17      14.47
C     -12.30      15.19      13.82
C     -11.95      14.84      12.33
C     -11.43      13.36      12.26
C      18.48      14.86      11.52
C      13.81     -13.76      25.07
C      23.87       1.33       0.60
C      15.38     -13.82      25.17
C      15.91      29.91       0.04
C      25.91       0.03       1.49
C      24.33       0.13       1.51
C      13.20      28.77       0.84
C       3.14      13.60      25.33
C       4.72      13.64      25.34
C       2.67      14.85      24.49
C      12.89      -5.44      19.51
C      11.80      -4.41      20.01
C      12.31      -6.09      18.20
C      12.03      -5.05      17.07
C      11.01      -3.99      17.60
C      11.47      -3.30      18.94
C      12.82      -2.56      18.62
C      13.93      -3.53      18.07
C      13.37      -4.29      16.81
C      14.18      -4.62      19.18
C       0.86       3.06      19.41
C       2.19       2.39      18.91
C       0.44       2.30      20.73
C       1.51       2.39      21.86
C       2.85       1.78      21.33
C       3.34       2.44      19.98
C       3.60       3.97      20.30
C       2.32       4.69      20.85
C       1.78       3.91      22.11
C       1.20       4.56      19.75
C      -7.30       1.16      13.85
C      -7.02       0.69      12.37
C      -7.87       2.63      13.76
C      22.59       2.71      12.93
C      22.86       2.18      11.49
C      23.48       0.73      11.47
C      22.42      -0.22      12.14
C      22.06       0.22      13.60
C      21.58       1.72      13.59
C      -8.39       0.20      14.44
C       7.54       2.73       1.19
C       8.23       2.89       2.42
C       7.56       5.17       2.61
C       6.95       5.11       1.33
C       7.04       3.92       0.60
C       7.46       6.35       3.38
C       8.15       7.67       5.24
C       7.45       8.82       4.77
C       6.58       8.60       3.67
C       6.65       7.42       2.91
C       6.00       7.33       1.66
C       6.18       6.20       0.86
C      -5.08      17.68       8.21
C      -6.39      17.95       7.74
C      -7.40      16.85       9.60
C      -6.12      16.45      10.07
C      -4.99      16.78       9.30
C      -8.55      16.56      10.37
C     -10.92      16.43      10.56
C     -10.84      15.73      11.79
C      -9.55      15.65      12.37
C      -8.40      15.96      11.64
C      -7.12      15.60      12.12
C      -5.99      15.81      11.32
C      -3.28      27.58       1.78
C      -2.58      26.43       1.32
C      -3.16      25.17       3.26
C      -3.81      26.29       3.81
C      -3.78      27.51       3.10
C      -3.19      23.94       3.94
C      -2.39      21.70       4.20
C      -3.07      21.53       5.43
C      -3.96      22.58       5.80
C      -3.95      23.81       5.13
C      -4.64      24.93       5.65
C      -4.54      26.18       5.02
C      16.19      13.81      11.20
C      14.88      14.09      11.66
C      13.88      13.12       9.72
C      15.16      12.88       9.16
C      16.29      13.31       9.87
C      12.73      12.69       9.03
C      10.35      12.69       8.77
C      10.42      11.99       7.54
C      11.71      11.51       7.17
C      12.87      11.92       7.84
C      14.15      11.65       7.32
C      15.29      12.16       7.96
C     -13.95      14.65      22.99
C     -13.20      15.58      22.22
C     -13.81      14.52      20.17
C     -14.50      13.51      20.87
C     -14.52      13.57      22.28
C     -13.80      14.52      18.76
C     -13.00      15.44      16.71
C     -13.63      14.43      15.93
C     -14.46      13.53      16.65
C     -14.52      13.52      18.05
C     -15.23      12.53      18.76
C     -15.21      12.51      20.16
C       5.61      13.39       6.29
C       4.29      12.87       6.37
C       3.32      15.04       6.48
C       4.61      15.64       6.50
C       5.73      14.79       6.45
C       2.17      15.85       6.49
C      -0.20      16.05       6.61
C      -0.15      17.46       6.68
C       1.13      18.04       6.52
C       2.30      17.26       6.48
C       3.59      17.85       6.47
C       4.73      17.04       6.50
C       2.72      12.25      24.76
C       2.02      12.08      23.54
C       2.64       9.78      23.39
C       3.28       9.86      24.65
C       3.23      11.07      25.36
C       2.70       8.58      22.65
C       1.94       7.26      20.82
C       2.63       6.11      21.29
C       3.51       6.31      22.38
C       3.48       7.50      23.13
C       4.15       7.60      24.36
C       4.02       8.76      25.14
C      15.16      -2.76      17.64
C      16.48      -3.02      18.11
C      17.48      -1.86      16.28
C      16.20      -1.49      15.80
C      15.07      -1.86      16.54
C      18.63      -1.52      15.54
C      21.00      -1.34      15.38
C      20.93      -0.62      14.16
C      19.64      -0.54      13.57
C      18.48      -0.89      14.27
C      17.20      -0.56      13.78
C      16.07      -0.82      14.56
C      13.44     -12.60      24.17
C      12.72     -11.45      24.61
C      13.32     -10.20      22.67
C      14.00     -11.32      22.13
C      13.99     -12.52      22.86
C      13.33      -8.97      21.97
C      12.54      -6.74      21.73
C      13.19      -6.57      20.49
C      14.05      -7.63      20.08
C      14.08      -8.86      20.77
C      14.77      -9.97      20.25
C      14.71     -11.20      20.92
C      -6.07       1.21      14.75
C      -4.76       0.90      14.32
C      -3.77       1.89      16.26
C      -5.06       2.15      16.80
C      -6.18       1.74      16.06
C      -2.62       2.31      16.95
C      -0.25       2.31      17.19
C      -0.31       2.98      18.44
C      -1.59       3.43      18.84
C      -2.76       3.05      18.16
C      -4.04       3.33      18.67
C      -5.18       2.86      18.01
C      23.91       0.33       2.96
C      23.20      -0.63       3.72
C      23.83       0.39       5.78
C      24.48       1.43       5.09
C      24.44       1.43       3.68
C      23.89       0.34       7.19
C      23.15      -0.59       9.26
C      23.81       0.40      10.02
C      24.68       1.27       9.29
C      24.66       1.31       7.89
C      25.34       2.33       7.18
C      25.22       2.41       5.79
C       4.57       1.67      19.52
C       5.88       2.21      19.49
C       6.88       0.04      19.43
C       5.60      -0.56      19.35
C       4.47       0.27      19.32
C       8.03      -0.77      19.50
C      10.40      -0.99      19.43
C      10.34      -2.41      19.40
C       9.05      -2.97      19.60
C       7.89      -2.18      19.57
C       6.61      -2.77      19.53
C       5.47      -1.97      19.39
C      28.02      -0.03       0.09
C       7.66      13.92      25.52
C      30.85       0.07       0.18
C      30.11       1.15       0.73
C      28.70       1.08       0.67
C       0.47       0.10       0.19
C     -18.65      14.06      25.58
C       3.30       0.16       0.15
C       2.55       1.22       0.73
C       1.15       1.21       0.76
C       0.40       2.28       1.32
C      -1.00       2.24       1.30
C      11.47      -5.76      15.84
C      12.11      -5.76      14.57
C      10.41      -7.10      13.59
C       9.71      -7.16      14.81
C      10.26      -6.48      15.92
C      -0.67      22.18      12.46
C      -0.42      21.57      10.18
C      -1.61      20.79      10.18
C      -2.33      20.77      11.40
C      -1.88      21.45      12.55
C      -2.59      21.41      13.77
C       8.50      -7.88      14.90
C       1.03       1.63      23.08
C       0.82       2.23      24.35
C       0.12       0.18      25.34
C       0.30      -0.50      24.11
C       0.75       0.24      23.00
C      10.24      14.47       0.51
C       9.57      14.50       2.80
C       9.23      13.13       2.80
C       9.45      12.44       1.57
C       9.95      13.09       0.42
C      -0.44      -2.58      25.15
C       0.03      -1.88      24.03
C      22.11       4.15      12.88
C      20.86       4.59      13.40
C      21.26       6.85      12.79
C      -9.26       6.51      12.25
C      -8.86       5.17      12.31
C      20.82       8.19      12.78
C      19.16       9.80      13.35
C      19.92      10.87      12.83
C     -10.61      10.52      12.25
C     -10.14       9.19      12.22
C      -8.89       8.85      11.66
C      -8.45       7.52      11.68
H       4.95      -1.03       1.90
H      -5.64      27.92       0.47
H     -16.35      14.15      24.10
H     -16.20      15.88      24.01
H     -14.21      12.72      24.94
H     -12.72      13.58      25.28
H      -3.39     -12.94      24.50
H      -1.99     -13.85      25.06
H       5.09       2.25       0.18
H       5.20       1.49       1.76
H       8.64       0.06       1.43
H       7.25       0.25       2.50
H      -3.03      21.81       8.15
H      -1.39      21.66       7.56
H      -0.02      19.57       8.35
H      -0.81      18.29       9.23
H      -0.74      20.00       5.78
H      -1.92      18.92       5.06
H      -2.49      16.77       8.08
H      -2.99      17.04       6.41
H      -3.21      18.57       9.92
H      -4.19      19.93       9.40
H      -4.39      19.08       5.77
H      -4.89      20.22       7.01
H      10.67      12.13       4.82
H       9.98      13.62       5.41
H       7.56      14.21       4.63
H       6.61      13.04       3.75
H       8.20      13.68       7.19
H       7.57      12.20       7.91
H       5.74      10.95       4.90
H       6.15      10.57       6.56
H       7.67      10.87       3.05
H       9.29      10.41       3.57
H       8.55       9.93       7.21
H       9.79       9.84       5.97
H      18.26      12.03      11.08
H      17.30      11.70      12.50
H     -13.31      12.00      14.82
H     -11.72      12.72      14.92
H      16.42      13.53      13.99
H      16.74      15.23      13.65
H     -11.38      15.18      14.42
H     -12.70      16.20      13.87
H     -10.48      13.26      12.80
H     -11.23      13.11      11.21
H      18.06      15.87      11.54
H      18.70      14.63      10.48
H      15.84     -13.89      24.18
H      15.73     -12.87      25.60
H      26.34       0.89       1.98
H      26.23      -0.85       2.07
H      24.22       2.27       1.03
H      22.78       1.37       0.60
H      13.50      27.92       1.45
H      12.10      28.79       0.82
H       5.12      12.80      25.90
H       5.08      13.55      24.31
H       1.58      14.89      24.45
H       3.02      14.73      23.46
H      13.00      -6.83      17.78
H      11.40      -6.64      18.46
H      10.06      -4.49      17.74
H      10.85      -3.23      16.83
H      10.90      -4.96      20.27
H      12.15      -3.92      20.93
H      12.62      -1.78      17.89
H      13.20      -2.06      19.52
H      13.18      -3.59      15.99
H      14.14      -4.99      16.46
H      14.56      -4.15      20.09
H      14.96      -5.30      18.82
H      -0.49       2.71      21.15
H       0.23       1.26      20.47
H       2.70       0.71      21.19
H       3.63       1.88      22.10
H       1.98       1.35      18.66
H       2.54       2.88      18.00
H       4.40       4.04      21.04
H       3.94       4.48      19.40
H       2.50       3.96      22.93
H       0.86       4.40      22.46
H       1.52       5.07      18.83
H       0.30       5.07      20.10
H      -8.09       3.04      14.75
H      -7.10       3.27      13.33
H      23.53       2.88      10.99
H      21.93       2.19      10.91
H      -6.25       1.34      11.95
H      -6.61      -0.33      12.37
H      21.52      -0.22      11.52
H      22.80      -1.25      12.15
H      20.64       1.82      13.03
H      21.36       2.03      14.62
H      -7.99      -0.82      14.47
H      -8.62       0.49      15.47
H      -4.05     -11.10      25.65
H       8.66       2.10       2.90
H       5.44       8.11       1.30
H      -4.88      -8.83      25.90
H       6.03       9.37       3.29
H       8.78       7.72       6.04
H      -4.08      16.52       9.68
H      -6.55      18.55       6.93
H      -7.01      15.15      13.03
H      -5.07      15.54      11.67
H      -9.43      15.18      13.27
H     -11.81      16.57      10.08
H       6.34      -1.66       3.51
H      -2.15      26.40       0.39
H      -5.18      24.86       6.52
H       5.56      -2.99       5.42
H      -4.51      22.51       6.66
H      -1.77      20.99       3.83
H      17.21      13.13       9.46
H      14.70      14.48      12.58
H      14.26      11.11       6.45
H      16.21      11.96       7.56
H      11.82      10.96       6.32
H       9.47      13.04       9.14
H     -15.05      12.85      22.78
H     -12.73      16.38      22.63
H      16.04      11.79      18.26
H     -15.73      11.78      20.66
H      16.82      12.78      16.15
H     -12.41      16.15      16.29
H       6.65      15.23       6.43
H       4.10      11.87       6.29
H       3.70      18.87       6.48
H       5.65      17.48       6.50
H       1.24      19.06       6.54
H      -1.08      15.53       6.68
H      14.31      26.09       0.31
H       1.59      12.87      23.05
H       4.70       6.82      24.73
H      15.10      23.80       0.09
H       4.06       5.54      22.76
H       1.32       7.22      20.01
H      14.15      -1.60      16.17
H      16.65      -3.62      18.91
H      17.09      -0.08      12.88
H      15.15      -0.57      14.19
H      19.52      -0.07      12.67
H      21.88      -1.48      15.87
H       3.91      16.65      22.47
H      12.27     -11.42      25.52
H      15.30      -9.90      19.38
H       4.63      17.96      20.53
H      14.57      -7.56      19.21
H      11.93      -6.02      22.13
H      -7.10       1.96      16.45
H      -4.57       0.49      13.41
H      -4.15       3.85      19.55
H      -6.11       3.08      18.40
H      -1.70       3.94      19.72
H       0.63       1.97      16.80
H      24.95       2.17       3.19
H      22.75      -1.43       3.29
H      25.88       3.04       7.68
H      25.71       3.16       5.29
H      -6.58       1.99       9.78
H      22.54      -1.28       9.69
H       3.55      -0.18      19.31
H       6.06       3.20      19.59
H       6.50      -3.79      19.56
H       4.55      -2.41      19.36
H       8.93      -3.98      19.62
H      11.29      -0.49      19.33
H      28.17       1.87       1.05
H       7.27      13.09      25.08
H       0.88       3.09       1.73
H      -1.52       3.03       1.70
H       3.02       2.02       1.14
H     -18.20      13.25      25.16
H       9.75      -6.54      16.81
H      12.99      -5.28      14.40
H      -3.47      20.89      13.85
H       7.98      -7.92      15.78
H      -3.20      20.25      11.49
H       0.16      21.66       9.34
H       0.87      -0.26      22.11
H       0.98       3.22      24.52
H      -0.65      -3.58      25.07
H       0.15      -2.39      23.15
H       9.26      11.44       1.49
H       9.46      15.08       3.63
H      -7.94       4.93      11.93
H      20.20       3.95      13.84
H      -8.29       9.57      11.25
H      -7.54       7.29      11.28
H     -10.00      11.23      11.83
H      18.25       9.95      13.77
N       8.21       4.08       3.08
N       8.14       6.51       4.54
N      -7.48      17.55       8.44
N      -9.80      16.81       9.90
N      -2.55      25.29       2.05
N      -2.47      22.87       3.51
N      13.79      13.74      10.92
N      11.48      13.01       9.46
N     -13.17      15.49      20.87
N     -13.10      15.44      18.06
N       3.22      13.69       6.45
N       0.93      15.31       6.53
N       2.01      10.88      22.90
N       2.00       8.43      21.50
N      17.56      -2.58      17.43
N      19.87      -1.75      16.02
N      12.69     -10.32      23.86
N      12.62      -7.91      22.42
N      -3.68       1.25      15.06
N      -1.38       2.00      16.51
N      23.19      -0.58       5.07
N      23.20      -0.58       7.90
N       6.97       1.39      19.46
N       9.28      -0.24      19.47
N       9.00      14.00      25.58
N     -20.00      14.07      25.61
N      11.58      -6.41      13.52
N       0.00      22.22      11.29
N       0.38       1.51      25.41
N      10.04      15.12       1.69
N      20.49       5.88      13.34
N      19.62       8.53      13.32
