22

H       5.18       6.72       1.80
H       8.64       3.54       0.31
H       9.73       4.76       0.96
H       9.58       4.57      -0.81
H       8.51       6.36      -1.80
H       5.05       9.54      -0.31
H       3.96       8.32      -0.96
H       4.12       8.51       0.81
C       6.93       5.70       1.12
C       7.91       5.57       0.11
C       5.90       6.66       0.99
C       6.90       4.83       2.32
C       9.03       4.56       0.14
C       6.76       7.38      -1.12
C       5.78       7.51      -0.11
C       7.79       6.42      -0.99
C       6.80       8.25      -2.32
C       4.67       8.53      -0.14
O       8.00       4.36       2.77
O       5.74       4.62       2.82
O       5.70       8.72      -2.77
O       7.95       8.46      -2.82
