896

C       5.08       5.04       0.16
C       4.71       6.22       0.85
C       3.52       6.29       1.62
C       2.72       5.13       1.70
C       3.07       3.93       1.06
C       4.26       3.89       0.29
C       6.26       5.04      60.19
C       6.43       5.94      59.11
C       7.59       5.88      58.29
C       8.59       4.92      58.59
C       8.45       4.01      59.66
C       7.29       4.10      60.46
C       9.50       2.97      59.84
C       7.76       6.78      57.11
C       3.10       7.54       2.30
C       2.21       2.72       1.21
C      16.27      25.37      60.67
C      15.90      24.20      59.98
C      14.71      24.13      59.21
C      13.90      25.28      59.13
C      14.26      26.49      59.77
C      15.45      26.53      60.54
C      17.45      25.38       0.64
C      17.62      24.48       1.73
C      18.78      24.53       2.54
C      19.78      25.49       2.24
C      19.64      26.40       1.17
C      18.48      26.32       0.37
C      20.69      27.45       0.99
C      18.95      23.64       3.72
C      14.29      22.87      58.53
C      13.39      27.70      59.62
C      10.65      15.06      50.65
C      10.28      14.36      51.83
C       9.10      13.59      51.89
C       8.29      13.50      50.74
C       8.64      14.15      49.53
C       9.83      14.92      49.50
C      11.83      15.86      50.65
C      11.99      16.94      51.55
C      13.15      17.76      51.49
C      14.15      17.47      50.53
C      14.01      16.40      49.62
C      12.85      15.59      49.70
C      15.06      16.22      48.58
C      13.32      18.94      52.39
C       8.68      12.91      53.15
C       7.78      13.99      48.33
C      21.84      15.36      10.18
C      21.47      16.05       9.00
C      20.29      16.83       8.94
C      19.48      16.92      10.09
C      19.83      16.27      11.30
C      21.02      15.49      11.33
C       0.64      14.56      10.18
C       0.81      13.47       9.28
C       1.97      12.66       9.34
C       2.96      12.95      10.30
C       2.82      14.02      11.21
C       1.66      14.82      11.13
C       3.88      14.20      12.25
C       2.13      11.48       8.44
C      19.87      17.51       7.68
C      18.97      16.42      12.50
C      17.41      55.84      60.77
C      17.70      54.67      60.03
C      18.85      54.56      59.23
C      19.72      55.68      59.15
C      19.44      56.88      59.84
C      18.28      56.95      60.66
C      16.25      55.87       0.78
C      16.05      54.91       1.81
C      14.92      54.98       2.66
C      13.98      56.03       2.46
C      14.16      57.00       1.45
C      15.29      56.89       0.61
C      13.25      58.17       1.36
C      14.73      54.04       3.80
C      19.21      53.30      58.51
C      20.36      58.05      59.69
C       6.22      35.41       0.06
C       6.51      36.58       0.81
C       7.67      36.68       1.60
C       8.53      35.57       1.68
C       8.26      34.37       0.99
C       7.09      34.30       0.17
C       5.06      35.38      60.05
C       4.86      36.34      59.02
C       3.73      36.26      58.17
C       2.79      35.22      58.37
C       2.97      34.25      59.38
C       4.10      34.35      60.22
C       2.06      33.07      59.47
C       3.54      37.21      57.03
C       8.02      37.94       2.32
C       9.17      33.20       1.14
C      11.68      45.75      10.17
C      12.05      46.43       8.98
C      13.23      47.21       8.91
C      14.04      47.30      10.06
C      13.69      46.66      11.27
C      12.50      45.89      11.32
C      10.50      44.95      10.18
C      10.33      43.86       9.29
C       9.16      43.05       9.35
C       8.17      43.36      10.31
C       8.31      44.43      11.21
C       9.48      45.23      11.12
C       7.26      44.62      12.25
C       8.99      41.86       8.46
C      13.65      47.88       7.65
C      14.56      46.82      12.48
C       0.49      45.50      50.66
C       0.86      44.81      51.85
C       2.04      44.04      51.92
C       2.85      43.94      50.77
C       2.50      44.58      49.56
C       1.31      45.36      49.51
C      21.69      46.30      50.65
C      21.52      47.39      51.54
C      20.35      48.20      51.48
C      19.36      47.89      50.52
C      19.50      46.81      49.62
C      20.67      46.02      49.71
C      18.45      46.62      48.58
C      20.18      49.38      52.37
C       2.46      43.36      53.18
C       3.37      44.42      48.35
C      16.27      35.46      30.52
C      15.90      36.64      31.20
C      14.72      36.71      31.98
C      13.91      35.56      32.07
C      14.26      34.35      31.43
C      15.45      34.30      30.66
C      17.45      35.45      29.72
C      17.62      36.34      28.63
C      18.79      36.28      27.82
C      19.78      35.32      28.13
C      19.64      34.42      29.21
C      18.47      34.51      30.00
C      20.69      33.38      29.40
C      18.96      37.17      26.64
C      14.30      37.97      32.65
C      13.40      33.14      31.60
C       5.08      55.79      30.31
C       4.71      54.60      29.63
C       3.53      54.54      28.85
C       2.72      55.69      28.76
C       3.07      56.90      29.40
C       4.26      56.94      30.17
C       6.26      55.80      31.11
C       6.43      54.91      32.20
C       7.60      54.97      33.01
C       8.59      55.92      32.70
C       8.45      56.83      31.62
C       7.28      56.74      30.83
C       9.50      57.86      31.43
C       7.78      54.08      34.20
C       3.11      53.27      28.18
C       2.21      58.10      29.23
C      21.75      45.58      20.20
C      21.45      44.84      21.37
C      20.29      44.04      21.47
C      19.43      43.97      20.35
C      19.71      44.66      19.16
C      20.87      45.47      19.09
C       0.53      46.42      20.17
C       0.73      47.45      21.14
C       1.86      48.30      21.07
C       2.80      48.10      20.03
C       2.62      47.09      19.05
C       1.49      46.25      19.15
C       3.53      47.00      17.88
C       2.05      49.43      22.01
C      19.94      43.32      22.73
C      18.79      44.51      17.99
C      10.56      45.67      40.63
C      10.26      46.41      39.46
C       9.10      47.21      39.36
C       8.24      47.28      40.48
C       8.52      46.58      41.68
C       9.68      45.77      41.74
C      11.72      44.83      40.66
C      11.91      43.80      39.70
C      13.05      42.95      39.76
C      13.98      43.15      40.80
C      13.81      44.15      41.78
C      12.68      45.00      41.68
C      14.72      44.24      42.95
C      13.23      41.81      38.82
C       8.75      47.93      38.10
C       7.61      46.74      42.85
C       6.21      25.42      30.41
C       6.49      24.25      29.67
C       7.65      24.14      28.87
C       8.52      25.24      28.79
C       8.25      26.45      29.48
C       7.09      26.53      30.29
C       5.05      25.47      31.25
C       4.85      24.51      32.29
C       3.72      24.60      33.14
C       2.79      25.65      32.94
C       2.97      26.61      31.93
C       4.10      26.50      31.08
C       2.06      27.79      31.82
C       3.52      23.65      34.28
C       7.99      22.87      28.16
C       9.17      27.61      29.31
C      17.40       4.99      30.42
C      17.68       6.17      31.16
C      18.83       6.28      31.96
C      19.70       5.17      32.04
C      19.44       3.97      31.35
C      18.28       3.89      30.54
C      16.24       4.95      29.58
C      16.04       5.90      28.54
C      14.90       5.82      27.69
C      13.98       4.77      27.89
C      14.16       3.81      28.91
C      15.29       3.92      29.75
C      13.25       2.63      29.01
C      14.71       6.76      26.55
C      19.18       7.55      32.67
C      20.36       2.80      31.52
C       0.60      15.21      40.62
C       0.88      15.95      39.44
C       2.04      16.75      39.33
C       2.91      16.82      40.43
C       2.64      16.14      41.64
C       1.48      15.33      41.72
C      21.82      14.38      40.66
C      21.61      13.34      39.71
C      20.48      12.49      39.80
C      19.55      12.70      40.84
C      19.74      13.71      41.81
C      20.86      14.56      41.69
C      18.83      13.82      42.98
C      20.28      11.35      38.86
C       2.38      17.46      38.06
C       3.56      16.31      42.80
C      11.79      15.20      20.22
C      12.07      14.46      21.39
C      13.23      13.67      21.50
C      14.10      13.59      20.40
C      13.83      14.27      19.19
C      12.67      15.08      19.11
C      10.63      16.04      20.17
C      10.42      17.08      21.12
C       9.29      17.93      21.03
C       8.36      17.72      19.99
C       8.55      16.70      19.03
C       9.67      15.86      19.14
C       7.64      16.60      17.85
C       9.09      19.07      21.97
C      13.57      12.96      22.77
C      14.75      14.11      18.03
C       0.93       1.09      60.78
C       1.41      60.79      60.09
C       0.68      59.59      60.14
C      21.85      59.55       0.05
C      12.12      29.33       0.05
C      12.60      30.46       0.74
C      11.87      31.66       0.69
C      10.66      31.70      60.78
C       6.50      15.24      46.69
C       6.98      15.93      45.56
C       6.25      15.87      44.36
C       5.05      15.13      44.32
C      17.69      15.17      14.14
C      18.17      14.48      15.27
C      17.44      14.54      16.47
C      16.24      15.28      16.51
C      21.27      29.56      60.77
C      20.68      30.83       0.08
C      21.49      31.97       0.12
C       0.52      31.83       0.02
C      10.08       0.85       0.06
C       9.49      60.42      60.75
C      10.31      59.27      60.71
C      11.71      59.42      60.82
C      15.65      15.15      46.47
C      15.06      15.28      45.20
C      15.88      15.31      44.06
C      17.28      15.21      44.21
C       4.47      15.26      14.36
C       3.87      15.13      15.63
C       4.69      15.11      16.77
C       6.09      15.21      16.62
C      15.84      45.58      14.12
C      15.36      44.89      15.25
C      16.09      44.95      16.45
C      17.30      45.69      16.48
C       4.65      45.66      46.71
C       4.17      46.35      45.58
C       4.90      46.29      44.38
C       6.11      45.55      44.35
C       6.69      45.69      14.37
C       7.29      45.55      15.63
C       6.47      45.52      16.77
C       5.07      45.62      16.63
C      17.88      45.56      46.47
C      18.48      45.69      45.20
C      17.66      45.73      44.06
C      16.26      45.62      44.20
C      12.12      31.49      30.36
C      12.59      30.36      29.67
C      11.87      29.16      29.74
C      10.66      29.13      30.48
C       0.93      59.75      30.47
C       1.41       0.05      31.16
C       0.68       1.25      31.09
C      21.85       1.29      30.35
C      10.08      59.97      30.35
C       9.49       0.41      30.48
C      10.31       1.55      30.51
C      11.71       1.40      30.40
C      21.27      31.28      30.48
C      20.68      30.01      30.35
C      21.50      28.87      30.32
C       0.52      29.01      30.43
C       8.02       9.08      56.40
C       6.97       9.92      55.99
C       7.16      10.74      54.86
C       8.40      10.70      54.18
C      19.21      21.34       4.43
C      18.16      20.49       4.84
C      18.35      19.68       5.97
C      19.59      19.72       6.65
C      13.60      19.64      54.69
C      12.56      20.04      55.55
C      12.76      21.17      56.37
C      13.99      21.85      56.32
C       2.41      10.78       6.14
C       1.37      10.38       5.28
C       1.57       9.25       4.46
C       2.80       8.56       4.51
C      14.37      51.73       4.42
C      15.40      50.86       4.83
C      15.19      50.04       5.95
C      13.95      50.08       6.61
C       3.18      39.52      56.42
C       4.21      40.38      56.00
C       4.00      41.21      54.88
C       2.76      41.16      54.22
C       8.72      41.15       6.17
C       9.75      40.74       5.31
C       9.56      39.61       4.49
C       8.32      38.94       4.53
C      19.90      50.09      54.67
C      20.94      50.50      55.52
C      20.75      51.63      56.34
C      19.51      52.30      56.30
C      19.24      39.47      25.93
C      18.20      40.32      25.52
C      18.40      41.14      24.39
C      19.64      41.11      23.72
C       8.05      51.78      34.90
C       7.01      50.93      35.31
C       7.21      50.11      36.44
C       8.45      50.14      37.11
C       2.40      50.05      24.32
C       1.36      50.47      25.18
C       1.57      51.59      26.01
C       2.82      52.24      25.97
C      13.59      41.20      36.51
C      12.55      40.78      35.65
C      12.76      39.66      34.82
C      14.01      39.00      34.86
C       3.13      21.35      34.88
C       4.15      20.46      35.28
C       3.94      19.62      36.39
C       2.70      19.67      37.06
C      14.32       9.07      25.95
C      15.34       9.96      25.55
C      15.13      10.79      24.44
C      13.89      10.74      23.77
C      19.91      10.73      36.55
C      20.93      10.33      35.68
C      20.72       9.22      34.84
C      19.48       8.55      34.89
C       8.72      19.68      24.28
C       9.75      20.09      25.16
C       9.54      21.20      25.99
C       8.29      21.87      25.95
H       5.31       7.05       0.79
H       1.84       5.17       2.24
H       9.42       4.86      58.00
H       7.17       3.45       0.41
H       4.98       2.13       0.23
H       5.63       7.66      59.15
H      10.46       3.47      59.99
H       9.55       2.41      58.90
H       6.90       6.63      56.45
H       8.65       6.50      56.53
H       3.79       8.36       2.05
H       2.11       7.82       1.93
H       1.39       2.90       1.92
H       2.82       1.92       1.62
H      16.49      23.37      60.04
H      13.03      25.24      58.59
H      20.61      25.55       2.83
H      18.36      26.97      60.42
H      16.16      28.28      60.61
H      16.82      22.76       1.68
H      21.65      26.95       0.85
H      20.74      28.00       1.94
H      18.09      23.79       4.38
H      19.84      23.92       4.30
H      14.98      22.06      58.78
H      13.30      22.60      58.90
H      12.58      27.52      58.92
H      14.01      28.50      59.21
H      10.87      14.43      52.66
H       7.42      12.96      50.78
H      14.98      18.06      50.47
H      12.73      14.81      49.06
H      10.54      14.99      47.74
H      11.20      16.89      53.27
H      16.03      16.08      49.08
H      15.11      17.16      48.01
H      12.45      19.60      52.25
H      14.21      19.52      52.11
H       9.36      13.17      53.97
H       7.69      13.27      53.43
H       6.97      13.28      48.51
H       8.39      13.58      47.52
H      22.06      15.99       8.17
H      18.61      17.46      10.05
H       3.79      12.36      10.36
H       1.55      15.61      11.77
H      21.73      15.43      13.09
H       0.01      13.52       7.56
H       4.84      14.34      11.75
H       3.92      13.26      12.81
H       1.27      10.82       8.58
H       3.02      10.90       8.72
H      20.55      17.25       6.86
H      18.88      17.15       7.40
H      18.16      17.14      12.32
H      19.58      16.84      13.31
H      17.06      53.87      60.08
H      20.57      55.60      58.60
H      13.18      56.11       3.09
H      15.42      57.60      60.71
H      17.68      58.74      60.81
H      16.73      53.15       1.65
H      12.47      58.12       2.13
H      13.85      59.06       1.57
H      15.61      54.12       4.44
H      13.87      54.33       4.41
H      18.49      52.51      58.76
H      20.19      52.97      58.87
H      21.12      57.85      58.92
H      19.77      58.89      59.33
H       5.87      37.38       0.76
H       9.38      35.64       2.23
H       1.99      35.14      57.74
H       4.23      33.65       0.13
H       6.49      32.50       0.02
H       5.54      38.10      59.18
H       1.28      33.13      58.70
H       2.66      32.18      59.26
H       4.42      37.13      56.39
H       2.68      36.92      56.42
H       7.30      38.73       2.07
H       9.00      38.27       1.96
H       9.93      33.40       1.91
H       8.58      32.35       1.50
H      11.45      46.36       8.16
H      14.91      47.84      10.01
H       7.34      42.77      10.37
H       9.60      46.02      11.76
H      11.79      45.84      13.08
H      11.12      43.89       7.57
H       6.30      44.77      11.75
H       7.21      43.68      12.82
H       9.85      41.20       8.61
H       8.10      41.29       8.75
H      12.97      47.62       6.83
H      14.64      47.51       7.37
H      15.37      47.53      12.29
H      13.94      47.24      13.28
H       0.26      44.88      52.68
H       3.72      43.41      50.82
H      18.52      48.48      50.46
H      20.79      45.23      49.07
H       0.60      45.41      47.75
H      22.31      47.35      53.26
H      17.49      46.47      49.08
H      18.40      47.56      48.02
H      21.04      50.04      52.22
H      19.29      49.95      52.09
H       1.78      43.63      54.00
H       3.45      43.73      53.46
H       4.18      43.71      48.54
H       2.75      44.00      47.55
H      16.49      37.47      31.13
H      13.04      35.60      32.61
H      20.62      35.26      27.54
H      18.35      33.87      30.79
H      16.16      32.55      30.61
H      16.83      38.06      28.66
H      21.66      33.88      29.55
H      20.75      32.81      28.46
H      18.11      37.02      25.97
H      19.86      36.89      26.07
H      14.98      38.79      32.39
H      13.31      38.24      32.29
H      12.59      33.33      32.31
H      14.02      32.34      32.02
H       5.31      53.78      29.70
H       1.86      55.64      28.22
H       9.43      55.99      33.29
H       7.16      57.38      30.04
H       4.97      58.70      30.23
H       5.64      53.19      32.17
H      10.47      57.36      31.29
H       9.56      58.43      32.37
H       6.92      54.22      34.86
H       8.67      54.36      34.77
H       3.79      52.46      28.45
H       2.12      53.00      28.54
H       1.40      57.92      28.52
H       2.83      58.91      28.82
H      22.09      44.88      22.17
H      18.58      43.41      20.42
H       3.60      48.72      19.95
H       1.36      45.52      18.45
H      21.47      45.63      17.30
H       0.04      47.28      22.90
H       4.31      47.77      17.94
H       2.93      47.22      16.99
H       1.17      50.08      21.93
H       2.91      50.04      21.73
H      20.65      43.57      23.52
H      18.96      43.68      23.06
H      18.04      43.74      18.18
H      19.39      44.16      17.14
H      10.90      46.36      38.66
H       7.39      47.84      40.41
H      14.79      42.52      40.88
H      12.55      45.73      42.39
H      10.28      45.61      43.53
H      11.23      43.96      37.93
H      15.50      43.48      42.90
H      14.12      44.03      43.84
H      12.36      41.17      38.90
H      14.10      41.21      39.10
H       9.47      47.68      37.31
H       7.77      47.57      37.77
H       6.85      47.51      42.65
H       8.20      47.09      43.69
H       5.85      23.45      29.73
H       9.37      25.17      28.23
H       1.99      25.73      33.57
H       4.23      27.19      30.34
H       6.50      28.33      30.44
H       5.51      22.74      32.13
H       1.29      27.74      32.59
H       2.67      28.68      32.02
H       4.40      23.71      34.92
H       2.66      23.95      34.89
H       7.26      22.09      28.41
H       8.96      22.53      28.52
H       9.92      27.41      28.54
H       8.58      28.46      28.95
H      17.04       6.96      31.10
H      20.56       5.25      32.60
H      13.17       4.68      27.27
H      15.42       3.22      30.49
H      17.69       2.09      30.39
H      16.70       7.67      28.70
H      12.47       2.68      28.24
H      13.85       1.74      28.81
H      15.59       6.70      25.91
H      13.85       6.47      25.94
H      18.45       8.33      32.42
H      20.15       7.88      32.31
H      21.11       3.01      32.29
H      19.76       1.95      31.88
H       0.24      15.90      38.65
H       3.77      17.38      40.35
H      18.75      12.07      40.93
H      21.00      15.29      42.38
H       0.89      15.19      43.52
H      22.28      13.49      37.94
H      18.05      13.05      42.94
H      19.43      13.62      43.87
H      21.17      10.70      38.93
H      19.42      10.74      39.15
H       1.66      17.22      37.28
H       3.36      17.09      37.72
H       4.32      17.07      42.60
H       2.97      16.67      43.65
H      11.43      14.52      22.19
H      14.95      13.03      20.48
H       7.56      18.34      19.90
H       9.81      15.12      18.45
H      12.08      15.23      17.31
H      11.09      16.93      22.89
H       6.86      17.37      17.89
H       8.24      16.80      16.96
H       9.98      19.71      21.91
H       8.23      19.67      21.68
H      12.85      13.20      23.55
H      14.55      13.32      23.11
H      15.51      13.34      18.23
H      14.16      13.75      17.18
H       1.02      58.76      59.64
H       2.28       0.01      59.55
H      21.60      57.62       0.47
H       1.01       3.03      60.37
H      12.21      32.48       1.19
H      13.47      30.41       1.28
H      10.41      33.63      60.36
H      12.20      27.39       0.46
H       6.59      16.37      43.53
H       7.85      16.47      45.61
H       4.80      14.70      42.39
H       6.57      15.65      48.63
H      17.78      14.05      17.30
H      19.04      13.94      15.22
H      15.99      15.72      18.44
H      17.76      14.76      12.20
H      21.07      32.90       0.20
H      19.66      30.93       0.14
H       0.93      33.80       0.20
H      20.64      27.94      59.81
H       9.88      58.35      60.63
H       8.47      60.32      60.69
H      12.12      57.45      60.63
H       9.45       2.47       1.02
H      15.46      15.38      43.13
H      14.04      15.34      45.10
H      17.70      15.37      42.24
H      15.02      14.21      48.09
H       4.27      15.04      17.70
H       2.85      15.08      15.73
H       6.51      15.04      18.60
H       3.83      16.21      12.74
H      15.76      44.46      17.28
H      14.49      44.36      15.20
H      17.56      46.12      18.42
H      15.76      45.16      12.18
H       4.57      46.79      43.55
H       3.30      46.89      45.63
H       6.37      45.12      42.42
H       4.57      46.08      48.65
H       6.90      45.44      17.70
H       8.30      45.49      15.72
H       4.66      45.44      18.60
H       7.32      46.64      12.74
H      18.09      45.81      43.13
H      19.49      45.76      45.11
H      15.85      45.81      42.23
H      18.51      44.61      48.09
H      12.20      28.34      29.24
H      13.46      30.41      29.13
H      10.41      27.20      30.92
H      12.19      33.44      29.94
H       1.01       2.08      31.59
H       2.27       0.01      31.70
H      21.60       3.22      29.91
H       1.00      57.81      30.89
H       9.88       2.48      30.58
H       8.47       0.50      30.55
H      12.12       3.38      30.56
H       9.44      58.34      29.42
H      21.07      27.94      30.25
H      19.66      29.91      30.29
H       0.93      27.04      30.27
H      20.63      32.91      31.41
H       6.40      11.33      54.53
H       6.08       9.93      56.49
H       7.98      11.14      52.29
H       8.63       8.35      58.15
H      17.59      19.08       6.30
H      17.27      20.49       4.34
H      19.17      19.28       8.54
H      19.82      22.07       2.68
H      12.00      21.49      56.98
H      11.67      19.54      55.56
H      13.57      23.73      56.77
H      14.21      17.90      53.95
H       0.81       8.92       3.85
H       0.48      10.87       5.27
H       2.39       6.68       4.06
H       3.02      12.52       6.88
H      15.94      49.44       6.28
H      16.30      50.86       4.35
H      14.34      49.65       8.50
H      13.78      52.55       2.70
H       4.75      41.81      54.55
H       5.11      40.38      56.48
H       3.15      41.59      52.33
H       2.59      38.70      58.13
H      10.32      39.28       3.89
H      10.65      41.23       5.31
H       8.72      37.06       4.07
H       8.11      42.90       6.89
H      21.51      51.97      56.94
H      21.84      50.02      55.52
H      19.91      54.18      56.76
H      19.30      48.34      53.94
H      17.64      41.74      24.06
H      17.30      40.32      26.01
H      19.24      41.57      21.84
H      19.84      38.74      27.68
H       6.45      49.51      36.77
H       6.11      50.92      34.83
H       8.05      49.68      38.99
H       8.65      52.51      33.15
H       0.82      51.93      26.60
H       0.46      49.99      25.18
H       2.44      54.14      26.40
H       2.98      48.33      23.51
H      12.01      39.32      34.23
H      11.65      41.25      35.65
H      13.63      37.11      34.43
H      14.17      42.92      37.32
H       4.69      19.01      36.71
H       5.05      20.45      34.79
H       3.10      19.21      38.94
H       2.54      22.18      33.18
H      15.88      11.41      24.12
H      16.24       9.96      26.04
H      14.29      11.21      21.89
H      13.73       8.23      27.65
H      21.48       8.89      34.23
H      21.84      10.81      35.67
H      19.88       6.67      34.43
H      19.32      12.44      37.38
H      10.29      21.53      26.60
H      10.65      19.60      25.16
H       8.69      23.75      26.40
H       8.13      17.97      23.46
N      21.46      60.68       0.69
N      22.14       0.96       0.64
N      21.03      58.40       0.14
N       1.64       2.30      60.73
N      10.27      30.57      60.14
N      10.95      29.45      60.19
N       9.84      32.84      60.69
N      12.83      28.11       0.10
N       4.66      14.49      45.45
N       5.34      14.54      46.57
N       4.23      15.04      43.17
N       7.21      15.30      47.91
N      15.85      15.93      15.38
N      16.53      15.87      14.27
N      15.42      15.38      17.66
N      18.40      15.12      12.92
N       1.01      30.56      60.73
N       0.25      29.50      60.69
N       1.42      32.92      60.80
N      20.47      28.41      60.71
N      12.20      60.68       0.11
N      11.44       0.92       0.14
N      12.61      58.32       0.03
N       9.28       2.01       0.12
N      17.77      15.10      45.47
N      17.01      15.08      46.54
N      18.19      15.16      43.11
N      14.85      15.10      47.62
N       6.58      15.31      15.36
N       5.82      15.34      14.29
N       7.00      15.26      17.72
N       3.66      15.31      13.21
N      17.69      46.33      15.35
N      17.00      46.28      14.24
N      18.12      45.78      17.63
N      15.13      45.52      12.90
N       6.50      44.91      45.48
N       5.81      44.97      46.59
N       6.93      45.46      43.20
N       3.94      45.72      47.93
N       4.57      45.74      15.37
N       5.33      45.77      14.30
N       4.17      45.66      17.73
N       7.49      45.74      13.21
N      15.76      45.51      45.46
N      16.52      45.47      46.53
N      15.36      45.58      43.10
N      18.68      45.51      47.62
N      10.27      30.26      31.12
N      10.96      31.38      31.06
N       9.84      27.98      30.58
N      12.83      32.71      30.30
N      21.46       0.16      29.71
N      22.15      59.87      29.77
N      21.03       2.43      30.25
N       1.64      58.54      30.53
N      12.20       0.14      30.29
N      11.44      59.90      30.27
N      12.61       2.50      30.35
N       9.28      58.81      30.31
N       1.01      30.28      30.54
N       0.25      31.34      30.56
N       1.42      27.92      30.49
N      20.47      32.43      30.52
N       9.36       9.86      54.64
N       9.18       9.09      55.69
N       8.67      11.43      53.00
N       7.85       8.21      57.50
N      20.54      20.56       6.19
N      20.37      21.32       5.14
N      19.86      18.99       7.83
N      19.04      22.21       3.33
N      14.94      21.39      55.47
N      14.76      20.35      54.70
N      14.27      23.03      57.05
N      13.42      18.54      53.82
N       3.75       9.02       5.36
N       3.57      10.07       6.13
N       3.08       7.39       3.78
N       2.23      11.87       7.01
N      13.00      50.94       6.15
N      13.20      51.72       5.11
N      13.66      49.36       7.79
N      14.57      52.63       3.35
N       1.81      40.30      54.68
N       2.01      39.53      55.72
N       2.47      41.88      53.04
N       3.38      38.61      57.48
N       7.36      39.41       5.38
N       7.55      40.45       6.15
N       8.04      37.77       3.79
N       8.90      42.25       7.03
N      18.55      51.84      55.45
N      18.74      50.79      54.68
N      19.22      53.47      57.04
N      20.08      48.99      53.80
N      20.59      40.26      24.19
N      20.40      39.49      25.23
N      19.92      41.84      22.55
N      19.06      38.60      27.03
N       9.40      50.99      36.64
N       9.22      51.76      35.60
N       8.73      49.40      38.28
N       7.87      52.65      33.80
N       3.77      51.77      25.12
N       3.57      50.74      24.35
N       3.11      53.42      26.70
N       2.19      48.98      23.42
N      14.96      39.48      35.71
N      14.76      40.51      36.48
N      14.30      37.83      34.13
N      13.38      42.27      37.41
N       1.77      20.55      36.61
N       1.97      21.34      35.59
N       2.41      18.94      38.23
N       3.34      22.25      33.82
N      12.95       9.87      24.22
N      13.16       9.08      25.24
N      13.60      11.48      22.60
N      14.53       8.17      27.01
N      18.54       9.00      35.75
N      18.74      10.03      36.54
N      19.19       7.38      34.15
N      20.11      11.80      37.45
N       7.35      21.41      25.08
N       7.55      20.38      24.30
N       8.00      23.04      26.68
N       8.92      18.62      23.38
O       4.57       2.76      60.41
O       5.41       6.78      58.76
O      15.76      27.66       0.42
O      16.60      23.63       2.07
O      10.14      15.63      48.37
O      10.98      17.28      52.39
O      21.33      14.79      12.46
O      22.17      13.14       8.44
O      18.06      58.06       0.58
O      17.02      53.99       2.07
O       6.87      33.18      60.25
O       5.83      37.26      58.76
O      12.19      45.19      12.45
O      11.34      43.51       8.45
O       1.00      46.05      48.38
O       0.15      47.74      52.38
O      15.76      33.17      29.96
O      16.61      37.18      28.28
O       4.57      58.07      30.87
O       5.42      54.07      32.55
O      21.09      46.23      17.98
O      22.13      47.71      22.06
O       9.91      45.01      42.85
O      10.94      43.54      38.77
O       6.88      27.65      31.04
O       5.81      23.58      32.55
O      18.06       2.77      29.79
O      17.00       6.83      28.28
O       1.26      14.58      42.84
O       0.20      13.07      38.78
O      12.45      15.83      17.99
O      11.39      17.34      22.05
