800

H       3.04      11.42      37.88
H       5.68       8.73      37.07
H       2.57      11.77      33.10
H       6.02       8.21      41.84
H       6.59      11.16      35.65
H       5.48      12.28      39.31
H       9.60      12.66      16.46
H       6.96      15.34      15.65
H      10.07      12.30      11.68
H       6.62      15.86      20.42
H       6.05      12.92      14.23
H       7.16      11.80      17.89
H      19.67      21.43       5.74
H      22.30      24.10       4.93
H      19.26      20.97       0.97
H      22.82      24.45       9.71
H      19.84      25.00       3.53
H      18.76      23.88       7.18
H      18.32       2.64      27.16
H      15.69      25.32      26.36
H      18.74       3.10      22.39
H      15.18      24.98      31.13
H      18.15      24.42      24.95
H      19.23       0.20      28.60
H       9.63      11.42      26.36
H       6.96       8.76      27.17
H      10.14      11.78      31.14
H       6.63       8.28      22.39
H       6.09      11.20      28.60
H       7.20      12.32      24.94
H       3.01      12.65       4.94
H       5.67      15.31       5.75
H       2.50      12.29       9.71
H       6.01      15.79       0.97
H       6.55      12.87       7.18
H       5.44      11.76       3.52
H      18.32      21.40      15.66
H      15.72      24.10      16.46
H      18.75      20.91      20.43
H      15.24      24.44      11.68
H      18.19      24.96      17.89
H      19.27      23.84      14.24
H      19.67       2.67      37.08
H      22.27      25.33      37.89
H      19.25       3.16      41.85
H      22.75      24.98      33.11
H      19.80      24.46      39.31
H      18.72       0.24      35.66
H      22.28      12.70       4.92
H      19.63      15.34       5.72
H      22.73      12.27       9.69
H      19.30      15.86       0.95
H      18.71      12.88       7.12
H      19.83      11.79       3.48
H      15.71      11.38      26.35
H      18.36       8.73      27.14
H      15.26      11.81      31.12
H      18.69       8.22      22.37
H      19.28      11.20      28.55
H      18.16      12.28      24.90
H       5.65       2.64      37.05
H       3.01       0.01      37.84
H       6.06       3.10      41.82
H       2.52      24.94      33.07
H       5.48      24.42      39.26
H       6.57       0.16      35.61
H       7.00      21.44      15.63
H       9.63      24.06      16.42
H       6.58      20.98      20.40
H      10.12      24.48      11.65
H       7.16      25.01      17.83
H       6.07      23.92      14.19
H      15.68      12.69      16.41
H      18.36      15.31      15.61
H      15.20      12.26      11.64
H      18.69      15.79      20.39
H      19.24      12.83      14.19
H      18.12      11.76      17.84
H      22.32      11.38      37.83
H      19.64       8.76      37.03
H      22.80      11.81      33.06
H      19.31       8.28      41.81
H      18.75      11.24      35.61
H      19.88      12.32      39.26
H       6.99       2.67      27.13
H       9.61       0.02      26.34
H       6.57       3.16      22.36
H      10.06      24.95      31.11
H       7.12      24.46      24.90
H       6.04       0.20      28.55
H       5.65      21.41       5.71
H       3.04      24.06       4.92
H       6.07      20.91       0.94
H       2.58      24.48       9.69
H       5.52      24.97       3.48
H       6.61      23.88       7.12
H       5.54      16.47      33.20
H       7.03       9.91      31.12
H       5.83       9.89      33.18
H       7.40      14.54      30.09
H       7.10       7.61      11.78
H       5.61      14.17       9.70
H       6.81      14.19      11.76
H       5.24       9.53       8.67
H      14.54      23.95       1.07
H      21.10       0.06      41.83
H      21.12      24.23       1.05
H      16.46       0.43      40.79
H      23.46       0.12      22.49
H      16.90      24.01      20.40
H      16.87      25.19      22.47
H      21.53      23.64      19.37
H      19.76       7.56       9.58
H      18.30      14.12      11.67
H      19.48      14.15       9.60
H      17.93       9.49      12.71
H      18.24      16.51      31.00
H      19.69       9.95      33.09
H      18.51       9.93      31.03
H      20.07      14.58      34.13
H      10.78       0.13      41.71
H       4.22      24.02       0.96
H       4.20      25.19      41.74
H       8.85      23.65       2.00
H       1.86      23.95      20.29
H       8.42       0.06      22.38
H       8.44      24.23      20.31
H       3.79       0.43      23.42
H      18.22       3.79      11.78
H      19.70      22.59       9.70
H      18.51      22.56      11.76
H      20.07       1.87       8.66
H      19.77      20.28      33.20
H      18.29       1.49      31.12
H      19.48       1.51      33.18
H      17.92      22.21      30.09
H       1.91      11.26      22.48
H       8.47      12.75      20.41
H       8.49      11.55      22.47
H       3.83      13.13      19.38
H      10.73      12.82       1.07
H       4.17      11.33      41.83
H       4.15      12.53       1.05
H       8.81      10.95      40.80
H       7.08      20.24      31.00
H       5.62       1.45      33.09
H       6.80       1.47      31.03
H       5.25      22.17      34.13
H       5.56       3.83       9.58
H       7.02      22.62      11.67
H       5.84      22.60       9.60
H       7.39       1.91      12.71
H      23.41      12.81      20.30
H      16.85      11.33      22.38
H      16.83      12.52      20.32
H      21.48      10.95      23.41
H      14.58      11.26      41.72
H      21.14      12.74       0.96
H      21.17      11.55      41.74
H      16.51      13.12       1.99
H      10.78       4.36      39.95
H       4.35       6.87      38.60
H       4.34       4.50      38.58
H       8.90       7.97      39.50
H       1.86      19.71      18.53
H       8.29      17.21      17.18
H       8.30      19.58      17.16
H       3.75      16.10      18.07
H       1.33       3.85       7.79
H      24.16      22.77       6.48
H       1.17      22.76       6.47
H      23.06       1.98       7.34
H      11.31      20.22      29.21
H      13.84       1.30      27.90
H      11.47       1.32      27.89
H      14.93      22.10      28.77
H       1.86       4.41      24.24
H       8.29       6.91      25.63
H       8.30       4.54      25.61
H       3.74       8.02      24.74
H      10.78      19.66       2.82
H       4.35      17.17       4.20
H       4.34      19.54       4.19
H       8.89      16.05       3.32
H      11.36       3.85      13.55
H      13.88      22.77      14.90
H      11.51      22.76      14.89
H      14.98       1.98      14.05
H       1.28      20.22      34.97
H      24.12       1.30      36.33
H       1.14       1.32      36.31
H      23.01      22.10      35.47
H      14.54      19.72       2.83
H      20.96      17.20       4.19
H      20.98      19.57       4.20
H      16.42      16.10       3.29
H      23.45       4.36      24.26
H      17.03       6.87      25.61
H      17.01       4.50      25.62
H      21.57       7.98      24.72
H      23.45      19.66      18.55
H      17.03      17.16      17.16
H      17.02      19.53      17.18
H      21.58      16.05      18.04
H      14.54       4.42      39.97
H      20.97       6.91      38.58
H      20.98       4.54      38.60
H      16.42       8.03      39.47
H      14.01      16.53      29.21
H      11.48      10.09      27.91
H      13.85      10.08      27.90
H      10.39      14.65      28.77
H      23.98       7.54       7.79
H       1.16      13.98       6.49
H      24.14      14.00       6.48
H       2.25       9.42       7.35
H      24.04      16.53      34.98
H       1.20      10.10      36.32
H      24.18      10.08      36.30
H       2.30      14.65      35.47
H      13.96       7.55      13.55
H      11.44      13.98      14.89
H      13.81      14.00      14.88
H      10.34       9.42      14.04
C       4.92      11.26      36.94
C       3.55      11.60      37.01
C       2.85      12.07      35.88
C       3.56      12.23      34.65
C       4.94      11.93      34.58
C       5.61      11.43      35.72
C       5.55      10.61      38.02
C       5.73      11.29      39.24
C       6.22      10.60      40.38
C       6.49       9.21      40.30
C       6.33       8.52      39.07
C       5.87       9.24      37.94
C       7.72      12.82      15.51
C       9.09      12.48      15.59
C       9.79      12.00      14.45
C       9.09      11.85      13.23
C       7.70      12.14      13.16
C       7.04      12.65      14.30
C       7.09      13.47      16.60
C       6.91      12.79      17.82
C       6.42      13.47      18.96
C       6.16      14.86      18.88
C       6.32      15.55      17.65
C       6.78      14.84      16.52
C      19.78      23.32       4.80
C      19.48      21.95       4.87
C      19.00      21.25       3.74
C      18.80      21.95       2.52
C      19.08      23.34       2.46
C      19.59      24.01       3.59
C      20.43      23.96       5.89
C      19.75      24.14       7.11
C      20.43      24.63       8.24
C      21.82      24.91       8.17
C      22.51      24.75       6.94
C      21.80      24.29       5.81
C      18.21       0.75      26.22
C      18.52       2.13      26.29
C      19.00       2.83      25.16
C      19.19       2.12      23.95
C      18.92       0.73      23.88
C      18.41       0.06      25.01
C      17.57       0.12      27.31
C      18.24      25.29      28.53
C      17.56      24.79      29.66
C      16.18      24.52      29.59
C      15.49      24.68      28.36
C      16.19      25.14      27.23
C       7.75      11.28      27.31
C       9.12      11.60      27.23
C       9.83      12.07      28.36
C       9.14      12.23      29.59
C       7.75      11.96      29.67
C       7.08      11.46      28.53
C       7.11      10.64      26.23
C       6.94      11.33      25.01
C       6.45      10.65      23.87
C       6.16       9.27      23.94
C       6.32       8.57      25.16
C       6.78       9.27      26.30
C       4.89      12.80       5.89
C       3.52      12.47       5.81
C       2.81      12.00       6.94
C       3.50      11.84       8.17
C       4.89      12.12       8.24
C       5.56      12.62       7.11
C       5.53      13.43       4.80
C       5.70      12.75       3.59
C       6.19      13.42       2.45
C       6.48      14.81       2.52
C       6.32      15.51       3.74
C       5.85      14.80       4.88
C      18.23      23.29      16.60
C      18.52      21.91      16.53
C      19.00      21.20      17.66
C      19.20      21.90      18.88
C      18.94      23.29      18.95
C      18.44      23.97      17.82
C      17.60      23.94      15.52
C      18.28      24.11      14.30
C      17.62      24.61      13.16
C      16.23      24.90      13.23
C      15.53      24.75      14.46
C      16.23      24.28      15.59
C      19.76       0.79      38.03
C      19.47       2.16      37.95
C      18.99       2.87      39.08
C      18.79       2.18      40.30
C      19.05       0.78      40.37
C      19.55       0.10      39.24
C      20.39       0.14      36.94
C      19.71      25.32      35.72
C      20.38      24.82      34.58
C      21.76      24.52      34.66
C      22.46      24.68      35.88
C      21.76      25.15      37.01
C      20.39      12.81       5.85
C      21.77      12.50       5.79
C      22.46      12.01       6.92
C      21.75      11.82       8.13
C      20.37      12.10       8.20
C      19.70      12.62       7.06
C      19.76      13.46       4.77
C      19.58      12.79       3.54
C      19.10      13.47       2.41
C      18.83      14.86       2.49
C      18.99      15.55       3.72
C      19.45      14.84       4.85
C      17.60      11.26      27.28
C      16.22      11.58      27.21
C      15.53      12.06      28.34
C      16.24      12.25      29.55
C      17.63      11.97      29.62
C      18.29      11.45      28.49
C      18.23      10.61      26.19
C      18.41      11.29      24.97
C      18.90      10.61      23.83
C      19.16       9.22      23.91
C      19.00       8.53      25.14
C      18.54       9.24      26.27
C       5.54       0.75      37.98
C       5.84       2.13      37.91
C       6.32       2.83      39.04
C       6.52       2.12      40.26
C       6.24       0.73      40.33
C       5.73       0.06      39.19
C       4.89       0.11      36.90
C       5.58      25.26      35.68
C       4.90      24.76      34.55
C       3.51      24.49      34.62
C       2.81      24.69      35.84
C       3.52      25.16      36.97
C       7.10      23.33      16.56
C       6.80      21.95      16.49
C       6.32      21.25      17.62
C       6.12      21.96      18.84
C       6.40      23.35      18.91
C       6.91      24.01      17.77
C       7.75      23.96      15.47
C       7.07      24.17      14.26
C       7.74      24.67      13.13
C       9.13      24.93      13.20
C       9.83      24.74      14.42
C       9.13      24.26      15.55
C      17.57      12.79      15.47
C      16.19      12.49      15.54
C      15.48      12.01      14.42
C      16.18      11.82      13.20
C      17.57      12.08      13.13
C      18.25      12.59      14.26
C      18.21      13.43      16.56
C      18.38      12.75      17.78
C      18.87      13.42      18.91
C      19.16      14.80      18.84
C      19.00      15.50      17.62
C      18.54      14.80      16.48
C      20.43      11.28      36.89
C      21.80      11.58      36.97
C      22.51      12.06      35.84
C      21.81      12.26      34.62
C      20.42      11.99      34.55
C      19.74      11.49      35.68
C      19.79      10.64      37.98
C      19.61      11.33      39.20
C      19.12      10.66      40.34
C      18.84       9.27      40.27
C      18.99       8.57      39.04
C      19.46       9.27      37.91
C       7.08       0.78      26.19
C       6.79       2.16      26.26
C       6.32       2.87      25.13
C       6.12       2.17      23.91
C       6.38       0.78      23.84
C       6.88       0.10      24.97
C       7.72       0.13      27.27
C       7.03      25.29      28.48
C       7.69      24.78      29.62
C       9.08      24.50      29.55
C       9.79      24.69      28.34
C       9.09      25.17      27.20
C       5.56      23.29       4.76
C       5.85      21.91       4.84
C       6.32      21.20       3.71
C       6.52      21.90       2.49
C       6.27      23.29       2.42
C       5.76      23.97       3.55
C       4.92      23.94       5.85
C       5.61      24.13       7.06
C       4.95      24.65       8.20
C       3.56      24.93       8.13
C       2.85      24.74       6.91
C       3.55      24.25       5.78
C       7.06      12.02      30.90
C       6.66      13.26      31.49
C       5.95      13.23      32.72
C       5.64      12.00      33.35
C       6.05      10.79      32.75
C       6.75      10.80      31.53
C       5.85      15.61      32.73
C       6.54      15.65      31.52
C       5.58      12.05       9.47
C       5.98      10.82      10.07
C       6.69      10.85      11.30
C       7.00      12.08      11.93
C       6.59      13.29      11.32
C       5.90      13.27      10.11
C       6.80       8.46      11.31
C       6.10       8.42      10.09
C      18.98       0.09      41.60
C      17.75      25.05      42.20
C      17.78      24.35       0.59
C      19.01      24.04       1.23
C      20.22      24.44       0.62
C      20.20      25.13      42.24
C      15.39      24.25       0.61
C      15.35      24.93      42.23
C      19.01      23.98      20.18
C      20.24      24.37      20.78
C      20.21      25.08      22.02
C      18.98       0.03      22.65
C      17.78      24.98      22.04
C      17.79      24.29      20.82
C      22.60      25.18      22.03
C      22.64      24.49      20.80
C      18.27      12.01      11.90
C      18.66      10.78      11.30
C      19.36      10.81      10.06
C      19.67      12.04       9.43
C      19.26      13.24      10.04
C      18.58      13.23      11.26
C      19.46       8.42      10.05
C      18.77       8.38      11.27
C      19.73      12.06      33.32
C      19.34      13.29      32.72
C      18.63      13.26      31.48
C      18.33      12.04      30.85
C      18.73      10.83      31.46
C      19.42      10.84      32.68
C      18.53      15.65      31.47
C      19.22      15.69      32.69
C       6.34      23.99       1.19
C       7.57      24.37       0.59
C       7.54      25.08      42.19
C       6.31       0.03      41.56
C       5.10      24.98      42.17
C       5.12      24.29       0.55
C       9.92      25.18      42.18
C       9.96      24.49       0.56
C       6.31       0.09      22.61
C       5.07      25.05      22.01
C       5.10      24.35      20.77
C       6.33      24.05      20.14
C       7.54      24.45      20.75
C       7.53      25.13      21.97
C       2.72      24.25      20.76
C       2.68      24.94      21.98
C      19.73      24.70       9.47
C      19.34       0.58      10.07
C      18.62       0.55      11.30
C      18.32      24.67      11.93
C      18.73      23.47      11.33
C      19.42      23.48      10.11
C      18.52       2.94      11.31
C      19.22       2.98      10.09
C      18.26      24.73      30.90
C      18.65      23.50      31.49
C      19.37      23.53      32.72
C      19.68      24.76      33.35
C      19.27       0.61      32.75
C      18.57       0.60      31.53
C      19.47      21.14      32.73
C      18.78      21.10      31.52
C       6.35      12.78      20.19
C       5.12      12.38      20.78
C       5.15      11.66      22.01
C       6.38      11.36      22.64
C       7.59      11.77      22.03
C       7.58      12.46      20.82
C       2.77      11.56      22.02
C       2.73      12.26      20.80
C       6.29      11.30      41.61
C       7.52      11.69      42.20
C       7.49      12.41       0.59
C       6.26      12.72       1.22
C       5.05      12.31       0.61
C       5.07      11.61      42.25
C       9.87      12.51       0.60
C       9.91      11.81      42.23
C       5.59      24.69      33.32
C       5.98      23.46      32.72
C       6.69      23.49      31.48
C       6.99      24.71      30.85
C       6.59       0.57      31.46
C       5.90       0.56      32.68
C       6.79      21.10      31.47
C       6.10      21.06      32.69
C       7.05      24.74      11.90
C       6.66       0.62      11.30
C       5.95       0.59      10.06
C       5.65      24.71       9.43
C       6.05      23.51      10.04
C       6.74      23.52      11.26
C       5.86       2.98      10.05
C       6.54       3.01      11.27
C      18.96      11.30      22.60
C      20.19      11.69      22.01
C      20.17      12.41      20.77
C      18.94      12.72      20.14
C      17.73      12.31      20.75
C      17.74      11.61      21.96
C      22.55      12.51      20.77
C      22.59      11.81      21.98
C      19.03      12.78       1.18
C      17.80      12.38       0.58
C      17.83      11.67      42.20
C      19.06      11.36      41.57
C      20.26      11.77      42.17
C      20.25      12.46       0.54
C      15.44      11.56      42.19
C      15.40      12.26       0.56
C       6.43       7.10      39.01
C       7.63       6.39      39.27
C       7.61       4.96      39.27
C       6.41       4.25      39.00
C       5.23       4.98      38.74
C       5.24       6.38      38.75
C       9.94       4.91      39.77
C       9.98       6.31      39.77
C       6.22      16.97      17.59
C       5.01      17.69      17.85
C       5.04      19.12      17.84
C       6.23      19.83      17.58
C       7.41      19.10      17.32
C       7.40      17.70      17.33
C       2.70      19.16      18.35
C       2.67      17.76      18.34
C      23.93      24.85       6.88
C      24.65       0.70       7.13
C       0.72       0.67       7.13
C       1.43      24.83       6.87
C       0.70      23.65       6.62
C      24.65      23.66       6.63
C       0.78       3.01       7.62
C      24.73       3.05       7.61
C      14.07      24.58      28.30
C      13.35      23.37      28.55
C      11.92      23.40      28.55
C      11.21      24.60      28.29
C      11.94       0.43      28.04
C      13.34       0.42      28.05
C      11.86      21.06      29.04
C      13.26      21.02      29.03
C       6.22       7.15      25.21
C       5.01       6.44      24.95
C       5.04       5.01      24.93
C       6.23       4.29      25.19
C       7.41       5.02      25.46
C       7.40       6.42      25.47
C       2.70       4.96      24.43
C       2.67       6.37      24.45
C       6.42      16.93       3.79
C       7.63      17.64       3.53
C       7.60      19.07       3.51
C       6.41      19.78       3.77
C       5.23      19.05       4.03
C       5.24      17.65       4.04
C       9.94      19.11       3.01
C       9.97      17.71       3.03
C      14.11      24.85      14.51
C      13.39       0.70      14.24
C      11.97       0.67      14.23
C      11.25      24.82      14.47
C      11.99      23.65      14.74
C      13.39      23.66      14.75
C      11.91       3.01      13.74
C      13.32       3.05      13.76
C      23.88      24.58      35.93
C      24.60      23.37      35.67
C       0.68      23.40      35.65
C       1.39      24.60      35.90
C       0.66       0.43      36.16
C      24.61       0.41      36.17
C       0.73      21.06      35.16
C      24.68      21.02      35.18
C      18.89      16.97       3.78
C      17.69      17.69       3.52
C      17.71      19.11       3.52
C      18.91      19.83       3.78
C      20.09      19.09       4.04
C      20.08      17.69       4.04
C      15.38      19.16       3.01
C      15.34      17.76       3.02
C      19.10       7.11      25.20
C      20.30       6.39      24.94
C      20.28       4.96      24.94
C      19.08       4.25      25.20
C      17.90       4.98      25.46
C      17.91       6.38      25.45
C      22.61       4.91      24.44
C      22.65       6.31      24.44
C      19.10      16.92      17.57
C      20.31      17.64      17.84
C      20.28      19.06      17.86
C      19.08      19.78      17.60
C      17.91      19.05      17.33
C      17.92      17.65      17.32
C      22.61      19.11      18.36
C      22.65      17.71      18.34
C      18.89       7.15      38.99
C      17.69       6.44      39.26
C      17.71       5.01      39.28
C      18.91       4.29      39.02
C      20.09       5.03      38.76
C      20.08       6.43      38.74
C      15.38       4.97      39.78
C      15.34       6.37      39.76
C      11.25      12.17      28.31
C      11.97      13.38      28.55
C      13.40      13.35      28.55
C      14.11      12.15      28.30
C      13.37      10.97      28.05
C      11.97      10.98      28.06
C      13.45      15.69      29.04
C      12.05      15.73      29.03
C       1.39      11.90       6.88
C       0.67      10.69       7.13
C      24.59      10.72       7.13
C      23.88      11.92       6.88
C      24.62      13.10       6.63
C       0.67      13.09       6.64
C      24.54       8.38       7.61
C       0.59       8.34       7.61
C       1.43      12.17      35.92
C       0.72      13.38      35.66
C      24.64      13.35      35.64
C      23.93      12.15      35.89
C      24.66      10.97      36.15
C       0.71      10.98      36.16
C      24.59      15.69      35.16
C       0.64      15.73      35.18
C      11.21      11.90      14.50
C      11.92      10.70      14.24
C      13.35      10.73      14.22
C      14.06      11.93      14.47
C      13.33      13.10      14.73
C      11.93      13.09      14.74
C      13.40       8.39      13.74
C      12.00       8.35      13.76
N       5.58      14.41      33.29
N       6.92      14.48      30.93
N       7.06       9.67      11.87
N       5.72       9.59       9.51
N      16.60      23.98       1.16
N      16.52      25.31      41.64
N      21.39       0.09      22.58
N      21.47      24.11      20.22
N      19.73       9.63       9.49
N      18.40       9.55      11.86
N      18.27      14.45      30.91
N      19.60      14.52      33.28
N       8.72       0.09      41.62
N       8.79      24.12       1.15
N       3.92      23.99      20.20
N       3.85      25.31      22.57
N      18.25       1.73      11.87
N      19.60       1.81       9.51
N      19.74      22.34      33.29
N      18.39      22.27      30.93
N       3.97      11.29      22.57
N       3.90      12.65      20.22
N       8.67      12.78       1.15
N       8.75      11.43      41.65
N       7.05      22.30      30.91
N       5.72      22.23      33.28
N       5.59       1.77       9.49
N       6.92       1.85      11.86
N      21.35      12.78      20.21
N      21.42      11.43      22.57
N      16.65      11.29      41.63
N      16.57      12.64       1.14
N       8.76       4.29      39.51
N       8.83       7.00      39.51
N       3.88      19.78      18.09
N       3.81      17.07      18.09
N       1.40       1.83       7.37
N      24.03       1.91       7.36
N      11.25      22.24      28.79
N      13.96      22.17      28.79
N       3.88       4.34      24.68
N       3.81       7.05      24.71
N       8.76      19.73       3.25
N       8.83      17.02       3.29
N      11.30       1.83      13.97
N      14.01       1.91      14.02
N       1.34      22.24      35.40
N      23.98      22.17      35.44
N      16.55      19.78       3.27
N      16.48      17.07       3.28
N      21.44       4.29      24.69
N      21.51       7.00      24.70
N      21.44      19.73      18.11
N      21.51      17.02      18.07
N      16.55       4.34      39.53
N      16.49       7.06      39.49
N      14.07      14.51      28.79
N      11.36      14.58      28.79
N      23.92       9.56       7.37
N       1.28       9.49       7.36
N      23.97      14.51      35.40
N       1.33      14.58      35.44
N      14.02       9.57      13.97
N      11.31       9.49      14.01
O       2.89      12.60      33.52
O       6.85       8.54      41.43
O       9.76      11.47      12.10
O       5.79      15.54      20.01
O      18.43      21.28       1.39
O      22.49      25.28       9.29
O      19.57       2.79      22.82
O      15.50      24.15      30.72
O       9.81      12.61      30.72
O       5.80       8.60      22.81
O       2.83      11.46       9.30
O       6.84      15.48       1.39
O      19.57      21.22      20.00
O      15.56      25.27      12.10
O      18.42       2.85      41.42
O      22.43      24.15      33.53
O      22.42      11.44       9.26
O      18.46      15.54       1.36
O      15.57      12.63      30.68
O      19.53       8.54      22.78
O       6.89       2.79      41.39
O       2.84      24.11      33.50
O       5.75      21.29      19.97
O       9.81      25.31      12.07
O      15.51      11.44      12.07
O      19.52      15.48      19.97
O      22.48      12.64      33.49
O      18.47       8.60      41.40
O       5.74       2.85      22.79
O       9.75      24.12      30.68
O       6.90      21.23       1.36
O       2.90      25.31       9.26
O       6.82      16.84      30.94
O       5.82       7.23       9.52
O      14.16      25.21      41.65
O      23.83      24.21      20.22
O      18.50       7.19      11.85
O      19.50      16.88      33.27
O      11.15      24.22       1.14
O       1.49      25.21      22.56
O      19.50       4.17       9.52
O      18.50      19.91      30.94
O       1.54      12.55      20.23
O      11.11      11.53      41.65
O       5.82      19.87      33.27
O       6.82       4.21      11.85
O      23.78      11.53      22.56
O      14.21      12.54       1.14
O      11.14       6.96      40.02
O       1.51      17.11      18.59
O      24.09       4.22       7.84
O      13.91      19.85      29.27
O       1.51       7.02      24.21
O      11.13      17.06       2.79
O      13.96       4.22      13.53
O      24.03      19.85      34.95
O      14.18      17.12       2.77
O      23.81       6.96      24.20
O      23.81      17.06      18.58
O      14.18       7.02      40.00
O      11.41      16.90      29.26
O       1.23       7.17       7.84
O       1.29      16.90      34.96
O      11.36       7.18      13.53
