182

C       6.78      13.63      17.95
C       7.71      -7.84      18.02
C       6.57      -6.70      16.05
C       5.51      -7.63      16.11
C       4.46      14.99      15.16
C       4.49      -6.63      14.07
C       5.59      -5.74      14.01
C       6.58      -5.74      15.00
C       8.67      -7.83      19.06
C       8.67      -8.83      20.06
C       7.78      12.61      20.00
C       6.88      12.58      18.90
C       4.37      -8.78      17.95
C       3.44      12.69      18.02
C       4.57      11.55      16.05
C       5.64      12.48      16.11
C       4.57      10.59      15.01
C       5.56      10.59      14.01
C       6.65      11.48      14.07
C       6.68      12.38      15.16
C       4.27      -7.73      18.90
C       3.37      -7.76      20.00
C       2.48      -8.85      20.06
C       2.48      12.68      19.06
C       5.57      13.69      17.03
C       3.46      11.57      17.03
C       7.69      -6.72      17.03
C       7.66      11.61      21.02
C       3.50      15.78      13.04
C       7.65      11.60      13.04
C       3.49      -6.76      21.02
C       6.78       2.49       4.72
C       7.71       1.42       4.65
C       6.58       0.29       6.63
C       5.51       1.22       6.56
C       4.47       1.13       7.52
C       4.52       0.24       8.63
C       5.61      -0.66       8.68
C       6.59      -0.66       7.67
C       8.66       1.41       3.60
C       8.65       2.40       2.60
C       7.75       3.48       2.65
C       6.87       3.53       3.76
C       4.37       2.36       4.72
C       3.44       3.43       4.65
C       4.57       4.56       6.63
C       5.64       3.63       6.56
C       4.56       5.51       7.68
C       5.55       5.50       8.68
C       6.63       4.60       8.63
C       6.68       3.72       7.52
C       4.28       1.32       3.76
C       3.39       1.37       2.65
C       2.50       2.45       2.60
C       2.49       3.44       3.60
C       5.58       2.42       5.64
C       3.46       4.54       5.64
C       7.69       0.31       5.64
C       7.61       4.46       1.61
C       3.55       0.39       9.67
C       7.61       4.46       9.67
C       3.54       0.39       1.61
C       9.87      11.46      22.24
C      10.94      11.42      21.30
C     -10.26      11.54      21.78
C       1.34       0.22       0.37
C       0.28       0.14       1.31
C      21.47       0.23       0.84
C       0.44      -0.20       2.75
C      10.78      11.11      19.86
C       1.28      -6.60      22.24
C       0.21      -6.57      21.30
C      -1.12      -6.69      21.78
C       9.81       4.63       0.37
C      10.87       4.71       1.31
C      12.20       4.62       0.84
C      10.70       5.05       2.75
C       0.37      -6.26      19.86
C       7.81       9.39      11.82
C       7.84       8.32      12.76
C       7.73       6.99      12.29
C       7.79       6.66      10.91
C       7.86       7.72       9.97
C       7.77       9.05      10.44
C       8.20       7.55       8.53
C       8.15       8.48      14.21
C       3.34      -4.54      11.82
C       3.31      -3.48      12.76
C       3.43      -2.15      12.29
C       3.37      -1.81      10.91
C       3.29      -2.87       9.97
C       3.38      -4.20      10.44
C       2.95      -2.70       8.53
C       2.99      -3.64      14.21
H       1.83      -8.95      20.85
H       1.82      11.90      19.14
H       3.79       9.93      14.92
H       5.46       9.94      13.22
H       7.45      13.06      15.23
H       4.94      -6.96      18.83
H       3.70      14.32      15.23
H       5.69      -5.10      13.22
H       7.36      -5.08      14.92
H       6.21      11.81      18.83
H       9.33      -7.05      19.14
H       9.32      -8.72      20.84
H       3.49      10.63      17.58
H       2.51      11.61      16.48
H       8.63      -6.76      16.48
H       7.66      -5.78      17.58
H       1.86       2.56       1.80
H       1.83       4.22       3.52
H       3.78       6.17       7.76
H       5.44       6.14       9.48
H       7.45       3.05       7.45
H       4.95       0.55       3.83
H       3.71       1.80       7.45
H       5.71      -1.29       9.48
H       7.37      -1.32       7.76
H       6.20       4.29       3.83
H       9.32       0.63       3.52
H       9.29       2.29       1.80
H       3.49       5.49       5.09
H       2.51       4.50       6.19
H       8.64       0.34       6.19
H       7.65      -0.64       5.09
H      -9.50      11.50      21.09
H      20.71       0.17       1.52
H       1.45      -0.53       3.00
H      -0.22      -1.02       3.02
H       0.20       0.67       3.36
H       9.78      10.78      19.60
H      11.46      10.30      19.57
H      11.02      11.99      19.26
H       3.07      21.84       0.03
H       8.17      10.50      22.56
H      -1.88      -6.65      21.09
H      12.97       4.69       1.52
H       9.70       5.38       3.00
H      11.37       5.87       3.02
H      10.95       4.18       3.36
H       1.37      -5.92      19.60
H      -0.31      -5.45      19.57
H       0.13      -7.14      19.26
H       8.08       5.54       0.03
H       2.98      -5.64      22.56
H       7.76       6.23      12.97
H       7.83       9.81       9.76
H       8.53       6.55       8.28
H       9.02       8.22       8.26
H       7.33       7.80       7.91
H       8.49       9.48      14.47
H       8.96       7.81      14.49
H       7.27       8.24      14.80
H       8.69       4.93      11.25
H       8.77      11.09      11.50
H       3.39      -1.38      12.97
H       3.31      17.56       9.76
H       2.62      -1.70       8.28
H       2.13      -3.37       8.26
H       3.81      -2.95       7.91
H       2.66      -4.64      14.46
H       2.19      -2.96      14.49
H       3.88      -3.40      14.80
H       2.47      -0.08      11.25
H       2.38      16.28      11.50
N       2.67      -0.04       0.65
N       8.55      11.17      21.96
N       8.48       4.89       0.65
N       2.60      -6.32      21.96
N       8.04       5.33      10.63
N       8.09      10.71      12.11
N       3.11      -0.48      10.63
N       3.05      -5.86      12.10
O       2.92      14.55      12.93
O       6.44      11.03      21.13
O       8.23      12.82      12.93
O       4.71      -6.18      21.13
O       3.01       1.63       9.79
O       6.37       5.00       1.49
O       8.15       3.22       9.79
O       4.78      -0.15       1.49
