13

Pr       0.99      -2.06      13.69
O      -0.76      -3.75      12.89
O       2.74      -0.37      12.89
C      -0.21      -4.86      13.13
O       2.06      -2.86      11.57
O       2.96      -3.31      14.41
C       2.19       0.74      13.13
O      -0.09      -1.26      11.57
O      -0.99      -0.81      14.41
C       4.16      -3.38      14.76
C      -2.19      -0.74      14.76
C       1.65      -2.48      10.46
C       0.33      -1.64      10.46
