13

Pr       1.61       6.18       0.26
O       0.53       6.99       2.38
O      -0.37       7.44      -0.46
O       2.68       5.38       2.38
O       3.58       4.93      -0.46
C      -1.57       7.51      -0.81
C       4.79       4.86      -0.81
O       3.36       7.88       1.06
O      -0.14       4.49       1.06
C       2.81       8.98       0.81
C       0.41       3.38       0.81
C       0.95       6.60       3.49
C       2.27       5.77       3.49
