154

C      15.97      16.14      34.90
C      15.98      14.72      34.90
C       0.75      14.69      34.88
C       0.80      16.11      34.88
C       2.09      16.72      34.87
C       3.30      15.98      34.87
C       3.19      14.57      34.87
C       1.94      13.94      34.88
C      14.76      14.01      34.90
C      13.53      14.68      34.90
C      13.46      16.09      34.90
C      14.70      16.80      34.90
C      17.29      17.73       0.86
C      17.28       1.39       0.82
C      17.27       1.37      33.60
C      17.27      17.71      33.58
C      17.25       2.10      32.39
C      17.23       1.44      31.16
C      17.22       0.02      31.08
C      17.24      17.07      32.31
C      17.32      17.10       2.14
C      17.32       0.09       3.36
C      17.30       1.50       3.26
C      17.27       2.14       2.02
C      17.27      16.92      34.88
C      17.27       2.15      34.86
C      17.23      13.94      34.89
C      17.15      17.13      29.84
C      12.22      16.76      34.89
C      17.43      17.22       4.61
C       4.57      16.60      34.87
C      16.16       0.84      17.21
C      14.74       0.83      17.21
C      14.70      16.06      17.19
C      16.12      16.00      17.18
C      16.73      14.71      17.18
C      15.98      13.50      17.18
C      14.57      13.62      17.18
C      13.94      14.87      17.18
C      14.03       2.05      17.21
C      14.70       3.28      17.22
C      16.11       3.34      17.21
C      16.82       2.11      17.21
C      17.74      17.26      18.48
C       1.40      17.24      18.45
C       1.39      17.25      15.92
C      17.73      17.28      15.89
C       2.12      17.24      14.71
C       1.47      17.28      13.47
C       0.06      17.33      13.39
C      17.09      17.33      14.61
C      17.11      17.23      19.77
C       0.09      17.20      20.99
C       1.50      17.20      20.89
C       2.14      17.22      19.64
C      16.94      17.29      17.19
C       2.16      17.24      17.18
C      13.95      17.34      17.20
C      17.19      17.45      12.14
C      16.78       4.58      17.21
C      17.23      17.13      22.24
C      16.60      12.23      17.18
C      17.13      17.50       6.99
C       0.47      16.37       8.81
C      17.48      17.13       9.75
C      16.40       0.50       7.93
C       1.49      15.38       9.22
C      17.62      17.54      24.62
C      16.61      16.69      26.63
C      17.42      17.55      27.42
C       0.67       0.62      25.41
C      15.60      15.78      27.21
C       6.97      16.08      34.87
C       8.98      17.43      34.87
C       9.78      16.25      34.88
C       7.78      14.93      34.88
C       9.54       1.03      34.87
C      16.09       9.83      17.19
C      17.44       7.83      17.20
C      16.26       7.03      17.20
C      14.94       9.02      17.19
C       1.04       7.27      17.20
H      17.33       2.08       4.10
H      17.27       3.16       1.99
H      17.25       3.12      32.40
H      17.20       2.01      30.31
H      17.23      16.04      32.28
H      17.34      16.08       2.19
H       2.14      17.75      34.87
H       4.02      13.97      34.87
H       1.91      12.91      34.88
H      14.67       0.06      34.89
H      14.76      12.98      34.90
H      12.68      14.11      34.90
H      16.38       2.79      34.86
H       0.40       2.80      34.85
H      17.22      13.29      34.01
H      17.23      13.30       0.47
H       0.11      16.33       4.67
H      16.95      16.16      29.80
H      12.21      17.75      34.89
H       4.63      17.59      34.86
H       2.09      17.15      21.73
H       3.17      17.20      19.62
H       3.15      17.23      14.72
H       2.05      17.31      12.63
H      16.07      17.37      14.58
H      16.09      17.23      19.82
H      17.75      14.66      17.17
H      13.97      12.79      17.18
H      12.92      14.90      17.19
H       0.08       2.13      17.21
H      13.00       2.05      17.21
H      14.13       4.13      17.22
H       2.82       0.35      17.18
H       2.79      16.34      17.17
H      13.31      17.35      16.31
H      13.31      17.34      18.09
H      16.32      16.73      22.32
H      16.30       0.14      12.09
H       0.01       4.60      17.21
H      17.59      12.17      17.18
H      15.76       1.23       7.63
H       1.94      14.90       8.35
H       1.02      14.60       9.83
H       2.27      15.87       9.80
H       1.35       1.26      24.99
H      15.03      15.26      26.43
H      14.89      16.34      27.82
H      16.09      15.02      27.82
H       7.37      13.99      34.88
H       8.76       1.79      34.86
H      10.16       1.17      33.98
H      10.15       1.18       0.45
H      14.00       9.43      17.19
H       1.80       8.06      17.19
H       1.19       6.65      16.31
H       1.19       6.66      18.09
N       0.26      16.59       7.48
N      16.61       0.30       9.26
N      17.05       0.05       5.70
N       0.01      17.07      11.06
N      16.75      16.72      25.27
N       0.52       0.61      26.76
N       0.09      17.52      23.31
N      17.38      17.76      28.73
N       7.61      17.28      34.87
N       9.13      15.06      34.88
N       5.65      15.91      34.87
N      11.10      16.12      34.89
N      17.29       9.19      17.19
N      15.07       7.68      17.20
N      15.91      11.15      17.19
N      16.14       5.70      17.21
