52

C      31.36      17.40      15.07
C      34.53      18.67      17.83
C      34.59      20.91      13.67
C      30.45      16.42      14.74
C      35.21      21.62      12.67
C      29.94      20.05       7.54
C      32.03      18.36      10.23
C      32.25      15.62       7.61
C      31.27      19.32       9.54
C      31.75      17.86      12.67
C      33.33      19.61      11.99
C      32.37      17.17       9.58
C      31.96      16.93       8.26
O      32.88      14.75       8.31
O      29.53      19.74       6.37
C      31.21      17.89       7.58
C      30.85      19.08       8.22
H      30.97      20.24      10.03
O      29.62      21.10       8.20
H      30.88      17.70       6.56
O      31.81      15.45       6.42
H      32.95      16.41      10.10
C      32.39      18.61      11.65
C      30.79      16.84      12.38
C      34.02      20.35      10.98
H      30.56      16.63      11.34
C      30.17      16.13      13.38
H      29.45      15.35      13.13
H      33.81      20.12       9.93
H      35.44      21.88      10.52
O      32.50      23.00      17.74
O      35.85      18.01      19.67
O      33.57      22.29      19.63
O      35.76      16.64      17.85
H      34.41      17.51      16.01
C      34.93      21.33      11.30
H      34.50      20.05      19.49
H      31.57      17.63      16.11
H      34.82      21.12      14.71
H      29.94      15.87      15.53
H      35.93      22.40      12.92
H      32.43      21.34      15.95
C      35.44      17.70      18.50
C      33.35      19.39      15.82
C      33.13      22.13      18.44
C      34.11      18.43      16.51
C      33.63      19.89      13.37
C      32.05      18.14      14.06
C      33.01      20.58      16.47
C      33.42      20.82      17.79
C      32.99      19.14      14.39
C      34.17      19.86      18.47
