35

Zn      12.75       5.79      12.99
Zn      16.03       6.72      14.35
Zn      19.77      12.84      13.16
Zn      18.85       9.55      11.80
O      19.97      11.20      14.27
O      18.51       9.56      13.68
O      19.86       7.16      14.33
O      17.80       6.53      15.00
Zn      20.01       5.58      13.08
O      12.25       4.59      14.46
O      21.26       5.22      11.60
O      11.30       5.75      11.69
O      20.96      13.35      11.69
C      13.48       7.48      15.25
O      20.37       4.33      14.55
O      19.80      14.29      14.47
C      15.39       6.32      11.63
C      18.29       6.74      11.09
C      18.08      12.10      10.90
C      19.25      10.20      14.52
C      18.84       7.30      15.07
C      13.11       3.74      14.90
C      21.97       6.23      11.22
C      11.45       6.59      10.71
C      21.82      12.49      11.25
C      19.37       3.62      14.93
C      18.97      14.14      15.45
O      12.80       7.43      14.19
O      14.54       6.78      15.52
O      14.39       5.59      11.89
O      16.03       7.06      12.48
O      18.43       5.73      11.82
O      19.05       7.78      11.15
O      18.13      12.79      11.96
O      18.79      11.05      10.63
