9

O       1.21      13.00       5.57
C      -0.78      11.83       2.11
Zn      -0.38      13.34       4.36
C      -0.68      15.67       2.64
O       0.11      14.78       3.11
O      -0.03      11.75       3.15
C       1.13      13.75       6.60
O      -1.82      12.84       5.60
C      -2.71      13.63       6.07
