13

Eu      -0.99       2.05       0.26
O      -2.93       3.22      -0.45
O       0.08       1.26       2.32
O       0.95       0.88      -0.45
O      -2.06       2.85       2.32
C      -4.12       3.34      -0.80
O       0.66       3.75       1.04
C       2.14       0.77      -0.80
O      -2.64       0.36       1.04
C       0.16       4.87       0.80
C      -2.14      -0.77       0.80
C      -0.34       1.65       3.43
C      -1.64       2.46       3.43
