13

Eu       3.57       2.05       7.12
O       4.38       4.27       7.89
O       2.76      -0.17       7.89
C       5.61       4.31       7.66
O       5.46       0.82       6.40
C       1.53      -0.21       7.66
O       2.39       2.68       9.17
O       1.68       3.29       6.40
O       4.75       1.43       9.17
C       6.08      -0.21       6.05
C       1.05       4.31       6.05
C       2.92       2.46      10.28
C       4.22       1.65      10.28
