26

C       9.92       3.44       6.62
C       8.86       2.83      12.08
O       9.26       1.68      12.50
O      10.73       2.53       6.20
O       9.76       4.62       6.07
O       7.92       3.55      12.63
C      10.06       1.90       8.60
C      10.13       1.95      10.10
C       7.88       3.11       9.85
C      10.16       4.43       8.85
C       9.87       4.41      10.37
C       8.05       3.35       8.33
C       9.20       3.08      10.65
C       9.53       3.28       8.05
H       9.93       0.92      10.47
H      11.05       1.57       8.23
H      11.17       2.15      10.42
H       9.37       1.11       8.27
H       7.53       2.12       9.98
H      11.19       4.25       8.72
H       7.49       2.59       7.74
H      10.80       4.51      10.96
H       9.17       5.23      10.65
H       7.68       4.36       8.05
H       9.86       5.41       8.43
H       7.19       3.85      10.27
