26

H       1.53       2.69       8.47
C       4.30       3.07      12.08
H       4.25       1.12      10.27
C       3.21       3.70       6.66
O       2.28       2.96       6.11
O       3.60       4.84       6.23
O       4.14       1.89      12.61
O       5.09       3.98      12.52
C       4.42       4.63      10.13
C       4.48       4.59       8.62
C       4.53       2.10       9.86
C       2.42       3.16      10.41
C       3.91       3.25      10.67
C       3.55       3.45       8.08
C       4.22       2.13       8.35
C       2.24       3.42       8.90
H       3.53       1.30       8.07
H       5.41       4.95      10.48
H       3.73       5.42      10.46
H       4.27       5.61       8.26
H       5.52       4.39       8.29
H       5.56       2.29       9.97
H       5.15       2.02       7.74
H       2.06       2.15      10.68
H       1.87       3.91      11.01
H       1.90       4.42       8.80
