172

Zn      -2.58       3.23      13.43
Zn       2.34      -1.54      19.17
Zn       7.50       1.29       8.30
Zn       2.59       6.06       2.57
H       7.36       0.86      11.78
H      -0.93      -0.97      11.15
H       1.90       0.62      13.99
H       0.26       2.45      14.46
H       1.45      -1.75      11.17
H       2.57      -1.24      12.43
H      -3.17       6.55      12.67
H       0.10      -3.04      12.90
H      -0.04      -1.72      17.47
H      -0.61      -2.18      15.08
H       3.57      -3.00      14.40
H       3.96      -2.53      16.82
H       2.24       4.37      12.17
H       4.57       0.96      11.01
H       5.93      -3.19      13.11
H      -1.73       5.79      10.06
H       2.45       0.82      20.82
H       3.99       2.65      21.45
H       6.82       1.07      18.60
H       5.18      -0.75      18.13
H      -3.46       3.43      21.43
H      -2.34       2.93      20.17
H       1.73      -4.87      19.93
H       5.02       4.73      19.69
H       4.89       3.40      15.13
H       4.31       3.86      17.52
H      -1.35       4.69      18.21
H      -0.95       4.21      15.78
H       7.16      -2.68      20.43
H      -0.35       0.73      21.59
H       1.02       4.87      19.49
H       3.19       1.58       0.80
H      -2.44       3.66       9.95
H       5.85       5.49      10.58
H       3.02       3.90       7.74
H       4.66       2.08       7.27
H       3.47       6.27      10.57
H       2.35       5.77       9.30
H       8.09      -2.03       9.06
H       4.82       7.57       8.83
H       4.96       6.24       4.26
H       5.54       6.70       6.65
H       1.36       7.53       7.34
H       0.96       7.05       4.91
H       2.68       0.15       9.57
H       0.35       3.56      10.72
H      -1.01       7.71       8.62
H       6.66      -1.26      11.67
H       2.47       3.70       0.91
H       0.93       1.87       0.28
H      -1.90       3.45       3.13
H      -0.26       5.28       3.60
H       8.39       1.09       0.30
H       7.26       1.59       1.57
H       3.19       9.39       1.81
H      -0.10      -0.20       2.04
H       0.03       1.12       6.61
H       0.61       0.66       4.22
H       6.27      -0.16       3.53
H       5.87       0.31       5.95
H      -2.24       7.20       1.31
H       5.27       3.79       0.14
H       3.90      -0.35       2.24
H       1.74       2.94      20.93
C      -1.51       0.76      12.27
C      -0.64      -0.27      11.93
C       0.61      -0.37      12.56
C       0.93       0.62      13.50
C       0.02       1.64      13.77
C       1.53      -1.52      12.24
C       1.16      -2.79      13.05
C       0.73      -1.98      16.75
C       0.42      -2.25      15.42
C       1.44      -2.60      14.52
C       2.74      -2.70      15.03
C       2.98      -2.42      16.37
C       2.33       3.45      11.59
C       3.52       2.71      11.67
C       3.64       1.52      10.94
C       4.66       3.23      12.49
C       5.49      -3.02      12.13
C      -0.40       6.29      11.68
C      -0.97       6.48      10.41
C      -0.88       5.19      12.58
C       3.42       0.92      20.33
C       4.28       1.95      20.67
C       5.53       2.05      20.04
C       5.85       1.07      19.10
C       4.94       0.05      18.82
C      -3.39       3.20      20.36
C      -3.76       4.48      19.55
C       5.65       3.66      15.85
C       5.35       3.93      17.18
C      -3.48       4.28      18.08
C      -2.17       4.38      17.57
C      -1.93       4.11      16.23
C       7.25      -1.76      21.01
C      -1.40      -1.02      20.93
C      -1.28       0.17      21.66
C      -0.25      -1.53      20.11
C       0.59       4.70      20.47
C       4.51      -4.60      20.92
C       3.94       0.88       0.46
C       4.04      -3.50      20.02
C       6.43       3.76       9.47
C       5.56       4.79       9.80
C       4.31       4.89       9.18
C       3.99       3.90       8.24
C       4.90       2.89       7.96
C       3.40       6.04       9.50
C       3.76       7.31       8.68
C       4.20       6.50       4.99
C       4.50       6.77       6.32
C       3.49       7.12       7.22
C       2.19       7.22       6.70
C       1.95       6.95       5.36
C       2.59       1.07      10.14
C       1.40       1.81      10.06
C       1.28       3.01      10.79
C       0.26       1.30       9.24
C      -0.57       7.54       9.60
C       5.33      -1.77      10.06
C       5.90      -1.96      11.33
C       5.80      -0.67       9.16
C       1.51       3.60       1.40
C       0.64       2.57       1.06
C      -0.61       2.47       1.69
C      -0.93       3.46       2.63
C      -0.02       4.47       2.91
C       8.31       1.32       1.37
C       8.68       0.05       2.19
C      -0.73       0.86       5.88
C      -0.42       0.59       4.55
C       8.40       0.24       3.65
C       7.10       0.14       4.16
C       6.86       0.42       5.50
C      -2.33       6.29       0.73
C       6.32       5.54       0.81
C       6.20       4.35       0.08
C       5.17       6.05       1.62
C       4.34      -0.18       1.26
C       0.41       9.12       0.81
C       0.98       3.64      21.28
C       0.88       8.02       1.71
N      -1.19       1.70      13.19
N       1.99      -2.05      17.22
N       3.73      -0.01      19.41
N      -2.92       3.73      15.38
N       6.12       2.82       8.55
N       2.93       6.57       4.51
N       1.20       4.54       2.32
N       7.84       0.79       6.35
O       5.65       2.38      12.68
O       4.65       4.39      12.94
O      -1.97       4.60      12.16
O      -0.29       4.93      13.65
O       0.73      -0.68      19.92
O      -0.26      -2.70      19.66
O       2.96      -2.90      20.44
O       4.63      -3.25      18.95
O      -0.72       2.14       9.06
O       0.28       0.13       8.79
O       6.89      -0.07       9.57
O       5.21      -0.41       8.09
O       4.19       5.20       1.81
O       5.18       7.22       2.07
O       1.96       7.42       1.29
O       0.29       7.77       2.78
