126

C       0.36      19.53      11.31
C       0.63      20.75      12.04
C       0.89      20.88      13.44
C       9.35      17.26      11.36
C       9.31      18.52       9.29
C       9.08      18.28       7.90
C       0.14      15.16      12.69
C       9.13      15.94      11.81
C       0.34      17.94       5.74
C       9.28      16.83       5.47
C       8.07      17.36       7.50
C       8.92      13.12      11.85
C       7.95      13.92      11.18
C       9.47      15.77       4.55
C       0.41      14.51       2.63
C       9.30      13.35       4.54
C       9.36      10.62       9.28
C       0.31       9.58      11.33
C       9.19      11.81      11.38
C       9.31      -3.07      14.02
C       0.30      -5.34      14.08
C       9.32      -4.30      16.11
C       9.48      -1.55      20.85
C       0.37      -0.29      22.78
C       9.29       0.86      20.86
C       9.31       3.56      16.10
C       0.22       4.60      14.05
C       9.11       2.37      14.00
C       0.36      -6.69      11.96
C       0.55      -6.56      13.36
C       0.67      14.50       1.21
C       0.42       0.86      25.02
C       0.61      -0.28      24.20
C       0.93      13.35       0.40
C       0.58       8.36      12.04
C       0.31       5.95      11.94
C       0.49       5.81      13.33
C       0.84       8.22      13.44
C       9.02      12.28       5.44
C       0.23      10.54       6.81
C       9.18      10.89       7.90
C       8.03      12.44       6.44
C       9.10      -4.06      17.49
C       0.37      -3.71      19.66
C       9.30      -2.62      19.93
C       8.09      -3.14      17.90
C       9.00       1.92      19.96
C       0.19       3.66      18.57
C       9.14       3.29      17.49
C       8.00       1.75      18.96
C       8.84       1.06      13.53
C       0.06      -0.98      12.68
C       9.06      -1.75      13.57
C       7.88       0.25      14.21
H       1.46      18.98      13.95
H       1.42      20.05      15.21
H       6.69      17.58       8.99
H       0.93      15.59      13.18
H       1.17      18.10       5.16
H       6.30      16.42       7.87
H       6.25      14.07      10.08
H       0.11      -5.88      11.38
H       0.18       1.77      24.62
H       1.48      11.96       1.78
H       1.46      11.40       0.23
H       0.06       5.15      11.35
H       1.41      10.11      13.94
H       1.37       9.04      15.21
H       1.03       9.92       6.95
H       6.70      13.68       5.52
H       6.30      13.31       7.09
H       6.60      12.53      10.56
H       1.20      -3.88      20.24
H       6.70      -3.39      16.43
H       6.31      -2.22      17.55
H       0.98       4.29      18.42
H       6.69       0.50      19.90
H       6.28       0.86      18.33
H       0.85      -1.39      12.18
H       6.54       1.64      14.85
H       6.20       0.09      15.34
N       0.37      21.92      11.39
N       1.23      19.87      14.28
N       0.13      18.34      11.97
N       0.10      19.56       9.96
N       9.07      17.43      10.05
N       0.27      18.54       6.97
N       8.27      16.66       6.36
N       6.95      17.06       8.21
N       0.06      13.79      12.60
N       8.16      15.26      11.15
N       0.24      15.70       3.31
N       0.08      13.35       3.30
N       9.13      14.57       5.09
N       0.15       9.57       9.96
N       9.76      10.74      12.00
N       9.02      11.67      10.05
N       0.07      -4.16      13.40
N       0.09      -5.37      15.44
N       9.07      -3.22      15.34
N       0.23      -1.49      22.11
N       0.05       0.87      22.11
N       9.13      -0.36      20.32
N       0.08       4.61      15.42
N       9.68       3.45      13.37
N       8.95       2.51      15.33
N       0.81      -7.72      14.01
N       0.43      15.65       0.53
N       0.86      -1.43      24.88
N       1.26      12.12       0.85
N       0.33       7.19      11.38
N       0.75       6.97      14.00
N       1.16       9.23      14.28
N       0.17      11.31       5.67
N       8.20      11.79       7.61
N       6.94      13.25       6.36
N       6.87      13.46      10.50
N       0.29      -4.32      18.42
N       8.29      -2.45      19.04
N       6.97      -2.85      17.19
N       0.14       2.90      19.72
N       8.17       2.39      17.79
N       6.93       0.93      19.06
N       9.76       0.39      12.77
N       8.09      -1.08      14.23
N       6.81       0.71      14.90
