164

Zn      -1.58       5.93      11.90
Zn       1.31       4.15      16.70
Zn       4.31      -0.55       7.15
Zn       1.41       1.22       2.35
Zn       0.48       5.99      14.28
Zn      -1.17       3.34      14.27
Zn       2.24      -0.62       4.76
Zn       3.89       2.03       4.78
H      -2.20       5.49      14.43
H       3.67       5.21      11.84
H       0.92       4.24       8.68
H       5.14       4.06       7.94
H      -3.98       2.13      13.22
H       6.40      -0.16      13.83
H       3.76      -0.13      10.44
H       4.53       2.12       9.82
H      -5.43       7.53      10.24
H      -4.73       6.87       8.74
H      -3.67       7.60       9.97
H       1.22       3.40      14.18
H       3.29      -1.52      16.73
H       7.17       0.29       0.86
H       5.16       4.01       1.58
H      -1.03       0.31      15.34
H      -2.72      -1.42      14.73
H      -1.54      -3.77      18.13
H       0.14      -2.09      18.74
H       4.45       1.39      18.33
H       7.11       6.42       0.79
H       3.74       3.00      18.60
H       4.92      -0.12       4.62
H      -0.95       0.17       7.20
H       1.81       1.13      10.37
H      -2.42       1.32      11.11
H       6.70       3.24       5.82
H      -3.68       5.53       5.22
H      -1.04       5.50       8.61
H      -1.81       3.25       9.22
H       8.15      -2.15       8.81
H       7.46      -1.50      10.31
H       6.39      -2.23       9.08
H       1.50       1.98       4.87
H      -0.56       6.89       2.32
H      -4.45       5.09      18.19
H      -2.43       1.36      17.47
H       3.76       5.06       3.71
H       5.45       6.80       4.31
H       4.26       9.15       0.92
H       2.58       7.47       0.31
H      -1.73       3.99       0.71
H      -4.38      -1.04      18.26
H      -1.02       2.37       0.45
C      -4.71       3.60      11.18
C      -4.39       5.68      10.47
C       4.55       4.67       9.93
C       3.50       4.94      10.81
C       2.18       4.81      10.34
C       1.93       4.39       9.03
C       3.00       4.13       8.17
C       4.32       4.30       8.61
C       1.06       5.14      11.29
C       2.75       3.54       6.80
C       5.92       2.29      11.49
C       6.45       1.63      12.62
C       6.00       0.36      12.96
C       5.02      -0.27      12.18
C       4.50       0.38      11.06
C       4.94       1.65      10.71
C       4.59      -1.66      12.54
C      -4.57       6.99       9.82
C       0.61       0.31      17.39
C       2.33       1.51      18.10
C       2.42      -0.96      18.64
C       3.12      -1.79      17.77
C       3.59      -3.03      18.24
C       6.86       1.27       0.50
C       6.16       2.12       1.37
C       5.73       3.37       0.92
C       4.37      -3.90      17.30
C       5.75       1.64       2.74
C      -0.32      -0.77      17.07
C      -1.14      -0.59      15.94
C      -2.08      -1.55      15.60
C      -2.22      -2.71      16.39
C      -1.41      -2.89      17.51
C      -0.46      -1.93      17.85
C       7.92      -3.72      16.03
C       3.59       1.93      18.75
C       7.43       1.77       7.87
C       7.11      -0.30       8.58
C      -1.82       0.71       9.11
C      -0.77       0.44       8.24
C       0.55       0.56       8.70
C       0.79       0.98      10.01
C      -0.28       1.24      10.88
C      -1.60       1.08      10.44
C       1.66       0.24       7.76
C      -0.03       1.83      12.25
C      -3.19       3.08       7.55
C      -3.72       3.74       6.42
C      -3.28       5.01       6.09
C      -2.30       5.65       6.87
C      -1.78       5.00       7.99
C      -2.21       3.72       8.33
C      -1.86       7.03       6.50
C       7.29      -1.62       9.23
C       2.11       5.07       1.66
C       0.39       3.86       0.94
C       0.31       6.33       0.41
C      -0.39       7.17       1.28
C      -0.86       8.40       0.81
C      -4.14       4.11      18.55
C      -3.44       3.26      17.68
C      -3.01       2.00      18.13
C      -1.65       9.27       1.75
C      -3.03       3.73      16.31
C       3.04       6.15       1.98
C       3.87       5.96       3.11
C       4.81       6.92       3.44
C       4.95       8.08       2.66
C       4.13       8.26       1.54
C       3.18       7.31       1.19
C      -5.19       9.09       3.02
C      -0.87       3.45       0.29
N      -5.29       4.65      10.46
N      -3.51       3.98      11.59
N      -3.32       5.27      11.15
N       1.81       0.24      18.10
N       0.42       1.55      16.98
N       1.49       2.29      17.42
N       8.02       0.73       8.59
N       6.23       1.39       7.45
N       6.04       0.11       7.89
N       0.92       5.13       0.94
N       2.30       3.82       2.07
N       1.23       3.09       1.62
O       1.39       5.54      12.44
O      -0.14       5.02      10.85
O       3.83       3.45       6.08
O       1.61       3.14       6.48
O       5.06      -2.15      13.61
O       3.77      -2.24      11.73
O      -1.49       5.28      13.76
O       4.60      -3.43      16.15
O      -0.13       5.04      17.76
O       5.21       2.57       3.47
O       5.91       0.44       3.07
O       7.28      -3.54      14.95
O       2.84       5.37      16.86
O       0.69       3.92      14.83
O       1.33      -0.16       6.61
O       2.87       0.36       8.20
O      -1.11       1.93      12.97
O       1.11       2.23      12.57
O      -2.33       7.52       5.44
O      -1.05       7.61       7.32
O       4.22       0.10       5.28
O      -1.88       8.81       2.90
O       2.85       0.34       1.29
O      -2.49       2.80      15.58
O      -3.18       4.93      15.98
O      -4.56       8.91       4.10
O      -0.11      -0.00       2.18
O       2.04       1.45       4.22
