24

O       3.60      -0.11      12.25
O       2.02      -1.62      12.41
O       2.03       1.55       9.62
O       3.46       0.76       8.13
Na       2.81      -0.79      10.04
Na       2.79       2.09      11.80
Na       5.71      -0.02      11.44
O       4.92      -1.56       9.62
O       6.35      -2.45      11.06
Na      -0.10      -2.16      11.69
O       7.82       0.00      12.31
O       0.56       1.69      12.37
Na      -0.08       0.81      10.07
Na       5.69       0.06       8.06
C       5.83       2.55      10.15
C       0.04      -1.60       8.49
C       2.94      -0.96      12.91
C       2.66       1.62       8.53
C       5.55      -2.53      10.11
C      -0.24       0.91      12.91
O       6.49       1.56       9.74
O       4.91       2.45      10.98
O       0.70      -1.45       9.56
O      -0.88      -0.83       8.16
