24

Na       7.16       9.90       5.74
Na       7.14       7.02       3.98
Na      10.05       9.13       4.34
Na      10.03       9.04       7.71
Na       4.26       8.30       5.71
Na       4.24      11.27       4.09
O       4.90       7.42       3.41
O       9.26       6.66       4.80
O       3.48       9.11       3.46
O       2.15       7.55       6.03
O       5.05      10.56       6.22
O       3.47       9.94       7.61
O       7.94       9.22       3.52
O       6.36      10.73       3.37
C       7.00       7.49       7.25
C       9.90      11.64       5.67
C       4.11       8.20       2.86
C       1.49       6.56       5.63
C       4.39      10.70       7.28
C       7.28      10.07       2.87
O       6.37       7.56       6.16
O       7.80       8.35       7.65
O       9.27      10.67       6.15
O       2.01      11.56       4.72
