297

C      10.98      18.86       5.02
C      21.82       0.08      38.61
C      21.90       0.12      46.15
C      21.91       0.56      58.03
C      21.15       1.38      57.16
C      21.33       1.27      55.76
C       0.36       0.35      55.20
C      12.08      18.52      56.09
C      11.92      18.62      57.48
C       0.43       0.15      53.79
C      22.30       1.25      52.89
C      22.26       1.04      51.50
C      11.29      18.68      50.97
C      11.26      17.32       0.03
C      12.51      16.64       0.03
C      13.76      18.83       0.05
C       1.59       0.60       0.05
C       1.66       2.02       0.06
C       2.90       2.72       0.06
C       4.09       1.96       0.07
C       4.05       0.56       0.06
C      12.54      15.23       0.03
C      11.36      14.48       0.02
C      10.09      15.12       0.01
C      10.07      16.54       0.01
C      21.44       0.27       1.32
C      20.21       0.99       1.29
C      20.22       1.00      64.12
C      21.45       0.29      64.10
C      19.59       1.35      62.91
C      20.17       1.03      61.68
C      21.41       0.35      61.62
C      11.08      18.94      62.84
C      11.05      18.89       2.58
C      21.36       0.28       3.80
C      20.15       1.01       3.73
C      19.58       1.36       2.50
C      11.20      18.84       0.04
C      19.55       1.38       0.03
C      13.80      17.35       0.04
C       0.10       0.02      60.40
C       8.91      14.38      65.32
C       2.94       4.11       0.10
C      20.32       0.56      21.83
C      30.05      18.77      21.83
C      31.32      16.59      21.76
C      10.67      17.29      21.78
C      11.87      16.51      21.74
C      11.86      15.10      21.69
C      10.60      14.45      21.66
C       9.41      15.19      21.70
C      17.87       0.49      21.87
C      17.82       1.89      21.91
C      19.00       2.67      21.90
C      20.24       1.98      21.87
C       0.49       0.23      23.09
C       1.72       0.93      23.07
C       1.70       0.99      20.55
C       0.47       0.28      20.53
C       2.31       1.38      19.35
C       1.74       1.06      18.11
C       0.53       0.33      18.04
C      32.73      18.92      19.26
C      32.75      18.86      24.36
C       0.54       0.26      25.58
C       1.78       0.94      25.51
C       2.36       1.27      24.28
C      32.61      18.80      21.81
C       2.38       1.34      21.82
C      30.02      17.29      21.79
C      32.78      18.94      16.82
C      18.95       4.06      21.95
C      32.77      18.91      26.80
C      13.04      14.36      21.64
C       1.27       1.09      43.59
C      23.12       2.51      43.60
C      20.60       2.50      43.61
C      20.58       1.08      43.61
C      19.31       0.43      43.62
C      18.09       1.15      43.63
C      18.16       2.56      43.64
C      19.39       3.23      43.63
C       2.44       3.25      43.60
C       3.68       2.59      43.58
C       3.76       1.18      43.57
C       2.54       0.45      43.58
C      10.94      18.43      44.88
C      10.93      17.01      44.86
C      10.93      17.01      42.34
C      10.92      18.43      42.32
C      10.93      16.29      41.13
C      10.92      16.95      39.90
C      10.89      18.36      39.83
C      21.85       0.13      41.05
C      10.98      18.35      47.37
C      10.95      16.94      47.30
C      10.93      16.28      46.06
C      21.87       0.28      43.60
C      10.93      16.24      43.60
C      21.86       3.28      43.61
C       4.99       0.53      43.54
C       0.07       0.07      48.59
C      16.86       0.49      43.67
C      11.32      17.59      51.86
C      11.36      17.80      53.25
C      11.42      18.70      14.46
C      12.51      18.94      13.59
C      12.33      18.83      12.20
C      11.07      18.49      11.64
C      31.89      18.21      12.53
C      32.06      18.32      13.92
C      10.87      18.52      10.23
C      11.82      17.98       9.33
C      11.66      18.12       7.93
C      32.43      18.80       7.41
C      20.52       0.37       8.29
C      20.69       0.24       9.68
C      32.34      18.69      36.24
C      32.01      17.61      35.37
C      32.02      17.82      33.97
C      21.42       0.12      33.41
C      21.71       1.19      34.30
C      21.70       1.00      35.69
C      21.55       0.27      32.00
C      31.56      18.66      31.10
C      31.76      18.72      29.71
C      21.97       0.39      29.18
C       1.01       0.97      30.07
C       0.81       0.91      31.46
C       8.12      12.06       0.10
C       8.69      10.79       0.36
C       7.89       9.63       0.26
C       6.52       9.70      65.25
C      27.84      10.98      65.04
C      28.63      12.14      65.13
C       5.77       8.50      65.09
C       6.29       7.43      64.34
C       5.64       6.19      64.29
C       4.43       5.99      64.99
C      25.75       7.07       0.35
C      26.41       8.31       0.40
C      17.34       5.91      21.76
C      15.96       6.03      21.48
C      15.35       7.31      21.55
C      16.09       8.46      21.91
C      17.47       8.32      22.15
C      18.09       7.06      22.09
C      15.42       9.72      22.04
C      14.21       9.80      22.77
C      13.47      10.99      22.80
C      13.91      12.14      22.11
C      15.14      12.08      21.41
C      15.89      10.88      21.39
C       7.40       1.00      43.67
C       8.21       2.13      43.92
C       9.61       2.02      43.82
C      10.23       0.80      43.47
C      20.36      18.62      43.26
C      18.95      18.72      43.35
C      11.65       0.74      43.31
C      12.32       1.74      42.55
C      13.72       1.79      42.51
C      14.50       0.84      43.20
C      24.79      18.77      43.92
C      23.38      18.72      43.96
H      11.72      18.25      60.36
H      12.76      17.85      55.73
H      12.47      18.02      58.09
H      22.32       2.21      53.24
H      22.25       1.85      50.87
H      20.73       1.82      55.15
H      19.65       1.30       4.58
H      18.70       1.88       2.49
H      18.69       1.85      62.92
H      19.67       1.31      60.83
H      11.97      18.43      62.81
H      11.93      18.36       2.61
H      22.68       2.56       0.06
H       5.01       2.41       0.10
H       4.93       0.04       0.07
H      31.05      17.01       0.01
H      13.44      14.73       0.03
H      11.44      13.46       0.00
H      18.55       0.93       0.03
H      19.44       2.47       0.03
H      14.37      17.04      64.51
H      14.35      17.03       0.93
H      11.90      18.49       5.05
H      29.93      14.83      65.16
H      24.07       4.62       0.50
H       2.29       1.21      26.36
H       3.25       1.77      24.28
H       3.20       1.90      19.36
H       2.22       1.36      17.26
H      31.85      18.39      19.23
H      31.86      18.36      24.38
H      12.77      17.00      21.75
H      10.53      13.43      21.60
H       8.52      14.68      21.68
H      21.11       2.52      21.87
H      27.94      18.92      21.88
H      16.90       2.33      21.96
H       2.50       2.43      21.84
H       3.38       0.89      21.80
H      29.46      17.00      20.90
H      29.47      16.95      22.68
H      32.00      18.28      26.83
H      31.81      18.75      16.77
H      19.77       4.59      22.15
H      13.85      14.76      21.24
H      10.94      16.37      48.15
H      10.92      15.26      46.06
H      10.94      15.26      41.13
H      10.93      16.38      39.04
H      21.84       1.15      41.02
H      21.92       1.15      46.18
H      30.22      18.36      43.62
H      17.31       3.13      43.67
H      19.40       4.25      43.64
H      13.52      18.38      43.57
H      24.31       4.27      43.60
H       4.52       3.17      43.57
H      11.81      15.59      43.59
H      10.04      15.60      43.60
H      21.85       3.92      42.72
H      21.86       3.92      44.50
H      21.82       1.06      48.62
H      22.11       1.03      38.57
H      15.98      18.50      43.37
H      27.75      18.54      44.07
H      11.28      16.63      51.51
H      11.32      16.98      53.86
H      30.97      17.96      12.17
H      31.25      18.15      14.52
H      12.65      17.49       9.68
H      12.37      17.73       7.31
H      19.71       0.88       7.94
H      19.99       0.68      10.29
H       2.17       0.11      11.58
H      21.95       2.11      33.93
H      21.95       1.78      36.29
H      30.72      18.19      31.45
H      31.07      18.29      29.08
H       1.86       1.42      29.71
H       1.53       1.29      32.07
H       9.96      17.02      33.36
H      26.86      11.07      64.76
H      28.20      13.05      64.92
H       7.19       7.52      63.85
H       6.08       5.41      63.79
H      24.90       6.94       0.90
H      26.02       9.06       0.98
H       8.32       8.72       0.44
H      18.03       9.13      22.43
H      19.08       6.98      22.32
H      13.84       8.98      23.26
H      12.57      11.00      23.30
H      15.46      12.88      20.87
H      16.74      10.85      20.82
H      14.35       7.38      21.34
H      20.77      17.73      42.98
H      18.38      17.90      43.14
H      11.79       2.46      42.06
H      14.17       2.56      42.00
H      25.33      18.10      44.47
H      22.93      18.00      44.55
H      10.18       2.85      44.01
N      20.19       2.27      57.71
N      21.63       0.62      59.32
N      11.21      18.39      49.69
N       2.82       0.36      14.14
N      11.61      18.92      15.75
N      21.27       0.06       6.12
N       9.83      16.34      35.93
N      32.43      18.42      37.53
N       0.39       0.46      27.89
N      10.07      10.70       0.69
N       8.94      13.10       0.11
N       3.99       4.74      65.04
N      15.20       4.88      21.15
N      17.84       4.68      21.77
N      13.06      13.15      22.05
N       7.59       3.37      44.25
N       6.08       1.19      43.67
N      15.80       1.08      43.25
O      19.03       2.00      57.32
O      20.45       3.47      57.40
O       3.17       1.51      13.75
O      14.66      18.50      13.84
O      10.65      15.47      35.55
O      30.56      15.97      35.62
O      10.24      10.19       1.82
O      10.71      10.03      65.19
O      14.70       4.97      20.00
O      14.29       4.67      21.98
O       7.95       3.78      45.38
O       7.86       4.26      43.40
