42

Ca       8.23       6.92       1.69
Ca       6.93       5.87      -1.69
Ca       8.23      13.01       5.36
Ca       7.23       9.96       3.52
Ca       6.93      14.06       8.73
Ca       7.94       2.83      -3.52
C       8.10       3.84      -0.08
C       9.21      12.78       2.74
C       9.54       0.06      -3.32
C       5.96       5.64      -4.30
C       7.07      10.98       6.97
C       9.21       7.15       4.30
C       8.10      16.09       7.12
C       9.54       5.59      -3.72
C       5.63       7.20       3.72
C       7.07       8.95       0.08
C       5.63      12.73       3.32
C       5.96       0.01      -2.74
O       5.93       6.73      -3.67
O       8.80       8.24       3.77
O       5.93      13.20      10.71
O       9.23       6.06       3.67
O       9.23      13.87       3.38
O       8.00       5.03       0.34
O       9.53       4.40      -4.09
O       6.20      13.17       4.35
O       8.96       6.03      -2.70
O       7.17       7.76      -0.34
O       7.70       2.13      -5.81
O       7.46       9.27       1.23
O       7.17      12.17       7.39
O       8.96      13.90       9.74
O       6.20       6.76       2.70
O       5.64       8.39       4.09
O       8.80      11.69       3.27
O       7.46      10.66       5.81
O       8.00      14.90       6.70
O       7.70       3.52      -1.23
O       6.37       1.10      -3.27
O       9.53       1.25      -2.95
O       6.37       4.55      -3.77
O       5.64      11.54       2.95
