15

O      -3.54       2.64       9.62
O      -3.88       1.79      11.64
O      -1.88      -4.18      11.51
O      -3.32      -2.91      12.69
C      -3.38       1.54      10.47
C      -2.73       0.34      10.12
C      -2.88      -0.75      11.01
C      -2.31      -1.99      10.73
C      -1.55      -2.18       9.54
C      -1.38      -1.13       8.67
H      -3.46      -0.61      11.91
H      -1.08      -3.15       9.36
H      -0.76      -1.25       7.78
C      -1.96       0.13       8.91
C      -2.52      -3.07      11.69
