16

C       4.93      -0.33       3.31
C       4.30      -1.57       3.08
C       3.68      -2.32       4.12
C       3.17      -3.59       3.84
O       5.23       0.09       4.53
C       3.87      -3.43       1.52
C       4.33      -2.13       1.75
C       3.29      -4.19       2.55
C       2.42      -4.28       4.90
H       3.59      -1.92       5.13
H       2.95      -5.21       2.39
H       3.97      -3.87       0.53
H       4.87      -1.58       0.97
O       2.42      -5.58       4.99
O       1.67      -3.61       5.71
O       5.32       0.41       2.29
