332

Zn       3.51      10.43       2.10
Zn      11.45       2.97      13.32
Zn      15.38      16.56      12.38
Zn       2.28       6.02       3.04
Zn      12.80       7.55      18.46
Zn       4.86      15.02       7.25
Zn       0.93       1.42       8.18
Zn      14.03      11.96      17.53
H       3.28       8.28       4.70
H      13.69      12.40       4.21
H      13.47      11.77       6.92
H      13.87       9.75       8.22
H       3.69       8.47       7.49
H      12.78       7.31       6.68
H      11.78       8.61       7.34
H       2.54       6.90       9.05
H      12.57       8.11       9.64
H      11.89       5.38       8.39
H      10.67       6.65       8.61
H      12.21       3.85      10.27
H      10.60       6.05      13.52
H      10.58       7.64      11.23
H       1.89       0.65      11.83
H       3.19       3.29      14.87
H       5.33       1.68      14.07
H       9.11      17.07      11.75
H      10.58      17.55      12.61
H       5.77       1.39      10.90
H       4.31       0.84      10.05
H       5.89       6.59       3.12
H       7.38       4.70       2.65
H       5.78       4.49      19.19
H       7.42       1.59      18.42
H       8.68       1.91      16.34
H       9.12       5.25      19.94
H      10.44       0.70      14.98
H       5.22      14.59      14.49
H       5.41      15.22      17.20
H       5.00      17.24      18.51
H      10.04       0.51      17.77
H       0.94       1.66      16.97
H       1.94       0.36      17.63
H      11.18       2.08      19.33
H       1.16       0.86      19.93
H       1.83       3.59      18.67
H       3.06       2.32      18.89
H       1.51       5.12      20.56
H       3.13       2.94       3.24
H       3.16       1.36       0.94
H      11.84       8.34       1.55
H      10.54       5.69       4.58
H       8.40       7.30       3.78
H       9.78       9.93       1.47
H       8.31       9.44       2.33
H       7.96       7.60       0.61
H       9.41       8.13      20.33
H       7.83       2.40      13.41
H       6.36       4.31      12.94
H       7.95       4.48       8.91
H       6.33       7.38       8.12
H       5.05       7.06       6.05
H       4.63       3.72       9.67
H      13.02       9.70      15.86
H       2.62       5.58      16.36
H       2.84       6.22      13.65
H       2.44       8.24      12.34
H      12.62       9.52      13.07
H       3.53      10.67      13.88
H       4.53       9.38      13.22
H      13.77      11.09      11.52
H       3.74       9.87      10.92
H       4.41      12.60      12.17
H       5.64      11.34      11.96
H       4.10      14.14      10.29
H       5.71      11.94       7.04
H       5.72      10.35       9.34
H      14.42      17.33       8.74
H      13.12      14.69       5.70
H      10.98      16.30       6.50
H       7.20       0.92       8.81
H       5.73       0.43       7.95
H      10.54      16.60       9.67
H      12.00      17.15      10.52
H      10.42      11.39      17.45
H       8.93      13.29      17.91
H      10.52      13.50       1.37
H       8.89      16.39       2.15
H       7.63      16.08       4.23
H       7.19      12.73       0.62
H       5.86      17.29       5.58
H      11.09       3.40       6.08
H      10.89       2.77       3.36
H      11.30       0.75       2.06
H       6.27      17.47       2.79
H      15.36      16.32       3.60
H      14.37      17.62       2.94
H       5.13      15.91       1.23
H      15.15      17.12       0.64
H      14.48      14.40       1.89
H      13.25      15.66       1.68
H      14.79      12.86       0.01
H      13.18      15.04      17.33
H      13.15      16.63      19.62
H       4.46       9.65      19.02
H       5.77      12.29      15.98
H       7.91      10.68      16.78
H       6.52       8.06      19.09
H       8.00       8.54      18.23
H       8.35      10.38      19.95
H       6.89       9.85       0.24
H       8.48      15.58       7.16
H       9.95      13.67       7.63
H       8.36      13.51      11.65
H       9.98      10.60      12.44
H      11.26      10.92      14.51
H      11.67      14.26      10.90
C       3.04       9.32       4.92
C      13.79      11.46       4.72
C      13.68      11.15       6.05
C       2.74       9.02       7.40
C      12.72       8.05       7.49
C      12.72       7.36       8.86
C      11.64       6.28       8.97
C      11.76       4.64      10.87
C      10.92       5.83      12.51
C      10.93       6.62      11.39
C       2.52       1.17      12.54
C       3.24       2.52      14.11
C       4.30       1.74      13.73
C       9.77      17.92      11.97
C       5.16       0.51      10.67
C       4.17       7.82       1.50
C       5.02       6.64       1.15
C       5.89       6.14       2.13
C       6.74       5.06       1.86
C       6.74       4.47       0.58
C       5.85       4.93      20.18
C       4.97       5.98      20.46
C       3.93       6.31      19.42
C       7.58       3.24       0.20
C       8.74       2.98       1.20
C       6.64       2.01       0.27
C       8.21       3.38      19.37
C       8.07       2.45      18.33
C       8.79       2.63      17.15
C       9.70       3.68      16.99
C      10.59       3.68      15.78
C       9.80       4.65      18.01
C      10.62       5.91      17.90
C       9.04       4.49      19.17
C      15.84      17.67      15.20
C       5.10      15.53      15.01
C       5.21      15.83      16.34
C      16.13      17.96      17.69
C       1.00       0.92      17.78
C       1.00       1.62      19.14
C       2.09       2.69      19.25
C       1.97       4.35       0.59
C       2.81       3.16       2.23
C       2.81       2.37       1.11
C      11.21       7.81       2.26
C      10.49       6.47       3.83
C       9.42       7.25       3.44
C       9.12       9.08       1.69
C       8.57       8.49       0.38
C       9.56       1.16      11.78
C       8.70       2.35      11.43
C       7.83       2.85      12.41
C       7.00       3.94      12.14
C       7.00       4.52      10.87
C       7.88       4.03       9.90
C       8.75       2.98      10.18
C       9.80       2.65       9.14
C       6.18       5.76      10.47
C       5.01       6.04      11.46
C       7.14       6.98      10.55
C       5.55       5.59       9.08
C       5.68       6.52       8.04
C       4.95       6.35       6.87
C       4.04       5.29       6.71
C       3.15       5.29       5.50
C       3.95       4.32       7.73
C       3.12       3.06       7.62
C       4.71       4.48       8.89
C      13.26       8.67      15.65
C       2.52       6.52      15.84
C       2.63       6.83      14.51
C      13.56       8.96      13.16
C       3.59       9.93      13.07
C       3.59      10.63      11.71
C       4.67      11.70      11.59
C       4.54      13.35       9.70
C       5.38      12.15       8.06
C       5.38      11.36       9.17
C      13.79      16.81       8.02
C      13.06      15.47       6.45
C      12.00      16.25       6.84
C       6.54       0.07       8.60
C      11.15      17.48       9.90
C      12.14      10.17      19.06
C      11.29      11.35      19.42
C      10.41      11.84      18.44
C       9.57      12.92      18.71
C       9.57      13.51      19.98
C      10.46      13.05       0.38
C      11.34      12.00       0.11
C      12.38      11.68       1.15
C       8.73      14.74      20.37
C       7.57      15.00      19.36
C       9.67      15.98      20.30
C       8.10      14.60       1.19
C       8.24      15.53       2.23
C       7.52      15.36       3.41
C       6.61      14.31       3.58
C       5.72      14.31       4.78
C       6.51      13.34       2.56
C       5.69      12.07       2.67
C       7.27      13.49       1.39
C       0.46       0.32       5.37
C      11.21       2.46       5.56
C      11.10       2.15       4.23
C       0.17       0.02       2.88
C      15.30      17.06       2.79
C      15.30      16.37       1.42
C      14.22      15.29       1.31
C      14.34      13.63      19.98
C      13.50      14.83      18.34
C      13.50      15.62      19.46
C       5.09      10.17      18.31
C       5.82      11.52      16.74
C       6.88      10.73      17.12
C       7.19       8.91      18.88
C       7.73       9.50      20.18
C       6.75      16.82       8.78
C       7.60      15.64       9.13
C       8.47      15.14       8.15
C       9.31      14.05       8.42
C       9.30      13.46       9.70
C       8.42      13.95      10.66
C       7.55      15.01      10.39
C       6.51      15.33      11.43
C      10.13      12.23      10.09
C      11.30      11.94       9.11
C       9.17      11.00      10.01
C      10.76      12.39      11.48
C      10.63      11.47      12.52
C      11.36      11.64      13.70
C      12.26      12.70      13.86
C      13.16      12.69      15.06
C      12.36      13.66      12.84
C      13.19      14.93      12.95
C      11.59      13.50      11.68
N       2.96      10.31       4.03
N      13.93       9.79       6.16
N      11.45       5.85      10.36
N      11.45       4.59      12.17
N       2.13       2.16      13.37
N       3.83       0.89      12.74
N       4.78      16.67      14.31
N       4.95      17.19      16.44
N       2.28       3.14       0.08
N       2.28       4.40       1.89
N      11.60       6.83       3.08
N       9.90       8.10       2.46
N      13.35       7.67      16.54
N       2.37       8.19      14.40
N       4.85      12.13      10.20
N       4.86      13.39       8.39
N      14.17      15.83       7.20
N      12.48      17.10       7.83
N      11.53       1.31       6.26
N      11.36       0.79       4.12
N      14.03      14.85      20.48
N      14.02      13.59      18.68
N       4.71      11.15      17.48
N       6.41       9.89      18.11
O       3.07       7.65       2.13
O       4.66       8.97       1.27
O       3.18       7.33      19.70
O       3.81       5.56      18.43
O      10.16       2.94      14.79
O      11.68       4.28      15.76
O      10.22       6.82      17.16
O      11.65       5.95      18.70
O      10.65       1.33      12.41
O       9.08       0.01      11.54
O      10.54       1.62       9.42
O       9.91       3.40       8.15
O       3.57       6.05       4.52
O       2.07       4.68       5.48
O       3.53       2.15       6.88
O       2.09       3.03       8.41
O      13.24      10.33      18.44
O      11.65       9.01      19.29
O      13.13      10.65       0.87
O      12.49      12.42       2.14
O       6.15      15.04       5.78
O       4.63      13.70       4.80
O       6.09      11.16       3.41
O       4.66      12.04       1.87
O       5.66      16.65       8.15
O       7.23      17.97       9.02
O       5.77      16.36      11.15
O       6.40      14.58      12.42
O      12.74      11.94      16.05
O      14.24      13.31      15.08
O      12.78      15.84      13.69
O      14.22      14.96      12.16
F       9.50       4.10       1.40
F       9.57       2.00       0.74
F       8.31       2.57       2.43
F       6.02       1.92       1.47
F       7.33       0.83       0.07
F       5.65       2.03      19.89
F       4.25       4.94      11.69
F       4.17       7.00      10.96
F       5.43       6.48      12.68
F       7.77       7.06      11.76
F       6.47       8.17      10.35
F       8.13       6.93       9.62
F       6.81      13.88      19.16
F       6.73      15.99      19.83
F       8.00      15.42      18.14
F      10.29      16.07      19.10
F       8.98      17.15      20.49
F      10.66      15.95       0.67
F      12.06      13.05       8.88
F      12.14      10.98       9.61
F      10.87      11.50       7.88
F       8.54      10.92       8.81
F       9.84       9.82      10.21
F       8.18      11.05      10.95
