243

Cu      11.80      11.02       3.69
Cu       7.79       9.32       9.41
Cu       4.20       6.84       3.62
Cu      15.81       4.77       9.39
Cu       3.68       2.12      15.11
Cu       7.61       0.24       9.32
Cu      19.18      11.39      15.09
Cu      11.93       2.15       3.71
Cu      11.59       6.51      15.03
H      14.29      12.29       4.49
H       7.93       0.63       3.76
H       7.16       2.02       1.82
H      11.49      13.05       1.53
H      11.87       8.22       2.78
H      10.87       6.01       3.48
H       9.40       5.97       5.52
H      10.01      10.21       5.90
H       6.16       8.13       7.24
H      17.94      10.13       7.36
H      18.79      11.47       9.30
H      21.13      11.04      10.12
H      19.53       8.83       1.42
H       7.25      11.56       1.87
H       7.98      10.22       3.86
H       6.61       8.22       4.52
H      16.39       6.96      16.76
H      15.63       5.60      14.79
H      16.92       3.52      14.20
H       3.99       4.12       0.21
H       4.48       4.04       2.86
H       3.64       1.81       3.65
H       2.04       1.75       5.60
H      17.91       6.05       5.76
H      13.48       6.30      10.19
H      11.09       6.59       9.46
H      10.27       5.23       7.51
H      14.21       3.50       7.24
H      18.19       6.23       8.49
H       5.00       6.47       9.19
H       5.78       5.22      11.22
H      17.39       3.61      11.60
H       5.52       1.29      12.93
H      13.51      10.58      13.06
H      11.92      10.65      15.01
H      11.13      12.89      15.83
H      13.83      12.61       7.13
H       2.02       0.53       7.56
H       2.81       1.84       9.56
H       5.23       1.65      10.22
H      17.01      10.81       5.36
H      18.57      10.83       3.39
H      19.71      12.99       2.80
H      10.06       1.41       5.91
H       9.88       1.88       8.57
H      12.24       2.27       9.36
H      13.09       0.91      11.30
H      17.02      12.58      11.46
H      19.03       8.59      15.90
H       4.38       6.38      15.17
H       5.96       6.35      13.21
H      21.08      10.63      12.93
H      16.74      12.74      14.19
H       7.53       1.12      14.88
H       8.23       2.42      16.92
H      19.39      13.35       0.20
H      11.71       4.16       1.53
H      15.34       6.48       1.67
H      16.08       5.07       3.61
H      14.54       3.26       4.42
H      13.43       5.74      12.83
H      14.13       1.51      13.26
H      12.61       1.54      15.26
H      11.56       3.73      15.93
H      13.41       9.42      11.06
H      12.61      10.77       9.10
H      10.17      10.68       8.51
H       9.35       8.06      11.60
H       9.04       7.67      14.27
H       7.53       9.53      15.05
H       8.28      10.94      16.99
H      11.86       8.54       0.07
C      14.01      12.92       3.65
C       7.00       0.40       3.24
C       6.57       1.17       2.16
C       5.37       0.84       1.52
C      12.44      13.34       1.98
C      11.22       8.13       3.65
C      10.67       6.92       4.05
C       9.84       6.89       5.17
C       9.60       8.09       5.87
C      10.19       9.27       5.40
C       8.78       8.10       7.13
C       5.48       8.86       7.66
C      19.79       9.04       7.13
C      18.94       9.98       7.73
C      19.41      10.72       8.82
C      20.71      10.50       9.28
C      19.36       8.28       5.91
C      20.43       9.17       1.93
C      21.13      10.29       1.49
C       6.68      10.69       2.19
C       7.09       9.94       3.30
C       6.35       8.83       3.67
C      18.47       6.40       1.31
C      18.04       5.64       0.09
C      16.92       6.06      16.47
C      16.49       5.30      15.37
C      17.20       4.15      15.04
C       3.11       4.47      16.80
C       3.80       3.95       3.70
C       3.33       2.72       4.14
C       2.44       2.69       5.22
C      17.67       3.90       5.84
C      18.18       5.09       5.33
C      16.78       3.89       7.05
C      20.69      11.04       0.26
C       4.93       1.62       0.31
C      13.07       5.75       9.35
C      11.75       5.90       8.94
C      11.29       5.14       7.86
C      12.18       4.26       7.22
C      13.49       4.17       7.69
C      18.59       5.71       9.36
C       4.32       5.83       9.75
C       4.76       5.13      10.88
C       3.84       4.32      11.57
C       2.53       4.24      11.11
C       4.25       3.60      12.83
C       5.24       0.34      13.36
C      13.52      12.73      12.84
C      13.13      11.53      13.44
C      12.25      11.56      14.53
C      11.80      12.80      14.98
C      14.39      12.74      11.61
C      13.09      13.22       7.63
C      11.76      13.27       7.19
C       3.05       0.47       7.89
C       3.49       1.21       8.99
C       4.83       1.12       9.37
C      16.45      12.90       7.02
C      17.32      12.90       5.79
C      17.52      11.72       5.06
C      18.39      11.73       3.97
C      19.03      12.92       3.64
C      10.20       0.46       5.39
C      10.30       1.33       9.41
C      11.61       1.54       9.85
C      12.07       0.78      10.93
C      19.01      13.45      11.54
C      17.72      13.30      11.04
C      19.46      12.68      12.75
C      11.34      12.51       5.96
C      11.73       3.49       6.01
C      19.71       8.51      15.06
C       4.65       7.30      14.65
C       5.53       7.28      13.56
C       5.84       8.48      12.92
C      20.86       9.67      13.39
C      16.99      13.34      15.06
C       8.42       0.84      15.45
C       8.81       1.57      16.57
C       9.96       1.18       0.17
C      10.69       0.08      16.81
C      10.38       1.89       1.43
C      12.68       4.39       1.96
C      13.47       5.41       1.44
C      14.71       5.68       2.04
C      15.12       4.90       3.12
C      14.28       3.89       3.58
C      13.03       6.17       0.21
C      13.27       4.79      13.33
C      13.89       3.62      12.89
C      13.66       2.43      13.59
C      12.81       2.45      14.70
C      12.22       3.65      15.07
C      11.88       7.88      12.72
C      11.44       8.64      11.50
C      12.36       9.41      10.77
C      11.92      10.16       9.68
C      10.57      10.12       9.34
C      10.10       8.65      11.09
C       9.30       8.31      15.11
C       8.48       9.34      15.55
C       8.89      10.12      16.62
C      10.12       9.84       0.13
C      10.90       8.79      16.74
C      10.55      10.61       1.35
C      14.76       3.63      11.66
C       6.73       8.49      11.71
N      12.85      12.61       3.04
N       2.69       3.75      15.74
N       5.92       9.57       8.72
N       5.24       8.45       2.99
N       3.43       5.11       4.28
N      10.99       9.29       4.32
N      13.92       4.89       8.74
N      11.03       0.47       4.33
N       4.40       0.37      14.42
N       5.71       0.34       8.70
N       9.48       0.43       9.99
N      17.71       4.92      10.02
N      20.02       9.68      14.44
N       9.68       9.37      10.04
N      13.08       3.65       3.01
N      12.45       4.80      14.40
N      10.49       8.05      15.69
N      18.11      12.97      15.72
O       3.75       1.34      16.97
O       5.71       2.46      16.89
O      21.48      11.84      16.82
O      19.48      10.77      16.96
O       8.45       9.29       7.54
O       8.49       7.03       7.70
O      18.27       8.54       5.36
O       4.62       7.38       5.50
O       4.06       6.11       1.76
O      17.69       7.23       1.84
O      16.48       5.06       7.53
O      16.43       2.80       7.56
O      12.57       2.59       5.56
O      10.62       3.74       5.49
O      10.25      12.79       5.41
O      12.18      11.60       5.56
O       3.38       2.71      13.24
O       5.32       3.89      13.40
O      14.71      11.66      11.06
O       6.94       0.33      11.20
O       8.31       0.48       7.47
O      16.12      11.81       7.54
O      18.60      11.83      13.23
O      20.59      12.92      13.25
O       7.09       9.65      11.26
O       7.07       7.40      11.18
O      15.06       2.55      11.11
O      15.13       4.81      11.26
O      11.58       1.58       1.83
O       9.60       2.68       1.99
O      13.81       6.98      16.76
O      11.83       5.88      16.90
O      11.04       7.00      13.17
O      12.98       8.15      13.24
O      11.72      10.29       1.83
O       9.79      11.47       1.84
