16

V       6.29      13.01       0.12
O       4.31      12.33      -0.63
V       2.68      12.79      -0.12
O       7.92      13.47       0.63
C       4.27      12.69       2.45
C       7.89      13.10      -2.46
C       4.25      15.39       0.04
C       7.88      10.41      -0.04
O       3.10      14.75      -0.02
O       6.72      11.05       0.02
O       5.48      12.80       1.92
O       1.88      13.00      -1.92
O       5.48      14.85       0.10
O       1.88      10.95      -0.10
O       6.72      13.11      -1.81
O       3.10      12.69       1.81
