18

C       0.00       5.98       5.19
C       0.00       6.41       3.75
O       3.58       7.23       1.76
O      -1.14       5.83       5.75
H      -2.15       6.48       3.61
O       2.44       7.89      -0.10
C      -2.51       7.43       1.09
O      -2.44       7.89      -0.10
H       0.00       7.72       0.09
H       2.15       6.48       3.61
C      -1.21       7.11       1.77
C       2.51       7.43       1.09
O      -3.58       7.23       1.76
C       1.21       7.11       1.77
C      -1.21       6.64       3.09
C       0.00       7.34       1.11
C       1.21       6.64       3.09
O       1.14       5.83       5.75
