18

C      -1.79      14.86       1.09
C      -2.71      13.90       1.77
C      -3.92      13.20       3.75
O      -1.42      14.57      -0.10
H      -2.79      12.55       0.09
C      -4.29      10.52       1.09
C      -3.92      11.80       1.77
O      -5.00      12.51       5.75
H      -4.94      11.30       3.61
O      -5.00       9.69       1.76
C      -3.11      12.74       1.11
O      -3.86      10.35      -0.10
O      -3.86      14.48       5.75
H      -2.79      15.03       3.61
C      -4.33      12.04       3.09
C      -4.29      13.42       5.19
O      -1.42      15.89       1.76
C      -3.11      14.14       3.09
