18

C      11.98      14.96       7.37
C      10.69      15.71       7.30
O      10.61      19.88       7.41
H      11.62      17.65       7.31
C       9.47      15.01       7.30
H       9.47      13.92       7.31
C       8.26      17.11       7.30
O       8.33      19.88       7.41
O       7.03      13.68       7.41
C       6.96      14.96       7.37
C       8.26      15.71       7.30
C      10.68      17.11       7.30
O      13.05      15.66       7.41
C       9.47      19.30       7.37
C       9.47      17.81       7.30
H       7.32      17.65       7.31
O      11.91      13.68       7.41
O       5.89      15.66       7.41
