24

N       8.01       7.08      17.76
N       7.84       6.27      16.73
N       7.08       1.60      11.35
N       6.27       2.64      11.53
N       1.60       8.01      12.28
N       2.64       7.84      13.09
H       7.50       4.65      14.71
H       4.65       4.65      11.87
N       7.08       8.01      17.76
N       6.27       7.84      16.73
H       4.65       7.50      14.71
N       1.60       7.08      11.35
N       2.64       6.27      11.53
N       8.01       1.60      12.28
N       7.84       2.64      13.09
C       6.76       6.76      16.11
C       6.17       6.17      14.90
C       6.76       3.25      12.61
C       6.17       4.46      13.20
C       3.25       6.76      12.61
C       4.46       6.17      13.20
C       6.73       5.03      14.33
C       5.03       5.03      12.63
C       5.03       6.73      14.33
