24

N      11.35      12.28      17.76
N      11.53      13.09      16.73
N      12.28      17.76      11.35
N      13.09      16.73      11.53
H      11.87      14.71      14.71
N      17.76      11.35      12.28
N      16.73      11.53      13.09
N      12.28      11.35      17.76
N      13.09      11.53      16.73
H      14.71      14.71      11.87
H      14.71      11.87      14.71
N      17.76      12.28      11.35
N      16.73      13.09      11.53
N      11.35      17.76      12.28
N      11.53      16.73      13.09
C      12.61      12.61      16.11
C      13.20      13.20      14.90
C      12.61      16.11      12.61
C      13.20      14.90      13.20
C      16.11      12.61      12.61
C      14.90      13.20      13.20
C      12.63      14.33      14.33
C      14.33      14.33      12.63
C      14.33      12.63      14.33
