24

H      14.71       7.50      14.71
H      14.71       4.65      11.87
H      11.87       4.65      14.71
C      12.61       6.76      16.11
C      13.20       6.17      14.90
C      16.11       6.76      12.61
C      14.90       6.17      13.20
C      12.61       3.25      12.61
C      13.20       4.46      13.20
N      11.35       7.08      17.76
N      11.53       6.27      16.73
N      12.28       1.60      11.35
N      13.09       2.64      11.53
N      17.76       8.01      12.28
N      16.73       7.84      13.09
C      14.33       6.73      14.33
C      14.33       5.03      12.63
C      12.63       5.03      14.33
N      12.28       8.01      17.76
N      13.09       7.84      16.73
N      17.76       7.08      11.35
N      16.73       6.27      11.53
N      11.35       1.60      12.28
N      11.53       2.64      13.09
