192

Tb       2.05      12.10      14.22
Tb       6.08       8.34       0.28
Tb       6.01      -1.85      14.78
Tb       1.98       1.90      28.73
Cu       3.40       5.32       7.19
Cu       5.59       4.01       8.25
Cu       4.61       6.10       9.52
Cu       3.04       3.75       9.25
Cu       7.43      -0.20       7.31
Cu       1.56       1.11       6.25
Cu       0.58      14.35       4.99
Cu       7.06       1.37       5.25
Cu       4.65       4.92      21.81
Cu       2.46       6.24      20.75
Cu       3.44       4.15      19.49
Cu       5.02       6.49      19.75
Cu       0.63      10.44      21.69
Cu       6.49       9.13      22.75
Cu       7.47      -4.10      24.02
Cu       0.99       8.88      23.76
H       4.99       0.03      11.68
H       5.98      12.64       8.07
H       4.65      11.80       9.76
H       7.28       6.86      10.60
H       6.23       0.81       9.89
H       0.24       8.55      11.84
H       3.84       8.74      10.69
H       7.77       1.95      12.52
H       0.81       3.54      11.24
H       4.75      10.47      11.97
H       2.05      -0.87      10.81
H       3.01       0.80       9.51
H       0.96       5.09       2.82
H       1.96       7.80       6.43
H       0.63       8.64       4.74
H       3.25      13.58       3.90
H       2.20       4.31       4.61
H       4.26      11.89       2.67
H       7.87      11.70       3.81
H       3.75       3.18       1.99
H       4.84       1.58       3.26
H       0.72       9.97       2.53
H       6.07       6.00       3.69
H       7.04       4.32       4.99
H       3.07      10.21      17.32
H       2.07      -2.39      20.93
H       3.40      -1.55      19.24
H       0.78       3.39      18.41
H       1.83       9.44      19.11
H       7.82       1.70      17.17
H       4.21       1.51      18.31
H       0.28       8.30      16.49
H       7.25       6.70      17.76
H       3.30      -0.22      17.03
H       6.01      11.12      18.19
H       5.04       9.45      19.49
H       7.10       5.16      26.18
H       6.10       2.45      22.58
H       7.43       1.61      24.26
H       4.81      -3.34      25.10
H       5.86       5.93      24.39
H       3.79      -1.65      26.34
H       0.19      -1.46      25.19
H       4.31       7.07      27.02
H       3.22       8.67      25.75
H       7.33       0.27      26.47
H       1.98       4.25      25.31
H       1.01       5.92      24.02
C       3.88      12.94      12.08
C       0.78       0.35      11.82
C       4.70      -1.87      10.93
C       5.18      -0.54      10.95
C       0.16      -0.69      12.71
C       5.77      13.20       8.81
C       6.62       9.68      12.04
C       4.99      12.69       9.83
C       6.75       7.60      10.89
C       5.93      -0.09       9.88
C       7.37       8.60      11.62
C       4.75       8.69      10.95
C       0.41       1.68      11.92
C       1.06       2.63      11.15
C       5.29       9.74      11.70
C       7.25      10.83      12.89
C       1.77       0.03      10.92
C       2.36       1.04      10.16
C       7.91       7.51       2.42
C       4.80       4.77       2.68
C       0.67       6.99       3.57
C       1.15       5.67       3.55
C       4.19       5.81       1.79
C       1.75       7.24       5.69
C       2.60      10.76       2.46
C       0.96       7.75       4.68
C       2.72      12.84       3.61
C       1.90       5.21       4.62
C       3.34      11.84       2.88
C       0.73      11.76       3.56
C       4.44       3.44       2.58
C       5.09       2.49       3.35
C       1.26      10.70       2.80
C       3.22       9.61       1.61
C       5.80       5.09       3.58
C       6.38       4.09       4.34
C       4.17      -2.69      16.92
C       7.28       9.89      17.18
C       3.35      12.11      18.07
C       2.88      10.79      18.05
C       7.89      10.94      16.29
C       2.28      -2.96      20.19
C       1.43       0.56      16.96
C       3.06      -2.44      19.18
C       1.30       2.65      18.12
C       2.13      10.34      19.13
C       0.69       1.64      17.38
C       3.30       1.56      18.06
C       7.64       8.56      17.08
C       6.99       7.61      17.85
C       2.76       0.51      17.30
C       0.81      -0.59      16.11
C       6.29      10.22      18.09
C       5.70       9.21      18.85
C       0.14       2.74      26.58
C       3.25       5.48      26.33
C       7.38       3.26      25.43
C       6.91       4.58      25.45
C       3.86       4.43      27.21
C       6.31       3.01      23.31
C       5.46      -0.51      26.54
C       7.09       2.49      24.33
C       5.33      -2.60      25.39
C       6.16       5.03      24.38
C       4.71      -1.59      26.13
C       7.33      -1.51      25.45
C       3.61       6.81      26.43
C       2.96       7.76      25.66
C       6.79      -0.46      26.20
C       4.84       0.64      27.39
C       2.26       5.15      25.42
C       1.67       6.16      24.66
I       5.36       3.82      10.87
I       3.66       2.63       6.92
I       5.86       6.36       7.18
I       1.98       6.15       9.42
I       1.33       1.30       3.63
I       7.69       2.50       7.58
I       1.84      -1.24       7.32
I       6.01      14.29       5.08
I       2.70       6.43      18.13
I       4.39       7.62      22.08
I       2.19       3.88      21.82
I       6.07       4.09      19.58
I       6.72       8.94      25.38
I       0.37       7.75      21.42
I       6.22      11.49      21.68
I       2.04      -4.04      23.92
N       2.03       2.32      10.30
N       6.26      -0.86       8.81
N       5.46       7.62      10.57
N       6.06       2.80       4.20
N       2.23       5.98       5.69
N       1.43      12.82       3.93
N       6.02       7.92      18.70
N       1.80      11.10      20.19
N       2.60       2.62      18.43
N       2.00       7.45      24.80
N       5.82       4.27      23.31
N       6.62      -2.57      25.07
O       4.06      -1.92      13.26
O       0.42      10.78      13.12
O       0.91      -1.68      13.01
O       7.07      -0.53      13.13
O       3.01      12.05      11.89
O       6.44      11.74      13.24
O       0.04       7.04       1.24
O       4.45       9.66       1.38
O       4.93       6.80       1.49
O       3.04       5.66       1.37
O       7.04       8.39       2.61
O       2.42       8.70       1.26
O       3.99      12.17      15.74
O       7.63      -0.53      15.89
O       7.15      11.93      15.99
O       0.98      10.78      15.88
O       5.04      -1.80      17.11
O       1.61      -1.50      15.76
O       8.02       3.20      27.77
O       3.61       0.58      27.62
O       3.12       3.44      27.51
O       5.01       4.59      27.63
O       1.01       1.85      26.40
O       5.64       1.55      27.74
