20

N      11.64       1.32      12.00
N      11.59      -1.30      12.05
H      12.68      -3.06      12.11
H      10.69      -4.52      12.54
H       8.42      -3.43      12.71
H       8.24      -0.97      12.45
H       8.28       1.12      12.38
H       8.55       3.59      12.54
H      10.85       4.58      12.31
H      12.79       3.03      11.96
C      11.67      -2.64      12.16
C      10.56      -3.45      12.39
C       9.31      -2.84      12.50
C       9.21      -1.46      12.38
C      10.38      -0.70      12.17
C      10.40       0.77      12.14
C       9.27       1.57      12.30
C       9.41       2.95      12.35
C      10.69       3.51      12.23
C      11.77       2.66      12.04
