20

H       1.80      16.86       2.05
H       3.77      15.35       1.73
H       6.04      16.38       1.39
H       6.24      18.85       1.41
H       6.27      20.92       1.40
H       6.12      23.40       1.36
H       3.87      24.49       1.67
H       1.87      23.03       2.01
N       2.90      18.60       1.91
N       2.93      21.26       1.90
C       2.80      17.26       1.92
C       3.90      16.42       1.74
C       5.16      17.00       1.55
C       5.27      18.39       1.55
C       4.12      19.17       1.73
C       4.14      20.65       1.72
C       5.30      21.41       1.54
C       5.23      22.80       1.52
C       3.99      23.41       1.70
C       2.87      22.60       1.89
