20

C       0.30      17.32      15.79
C       1.40      16.49      15.63
C       2.65      17.07      15.42
C       2.76      18.46      15.40
C       1.62      20.72      15.61
C       1.61      19.24      15.58
N       0.39      18.66      15.77
C       2.79      21.47      15.48
N       0.41      21.31      15.81
C       2.72      22.86      15.55
C       0.36      22.66      15.87
C       1.48      23.47      15.75
H      -0.70      16.91      15.93
H       1.27      15.41      15.65
H       3.54      16.45      15.27
H       3.73      18.92      15.24
H       3.75      20.99      15.32
H       3.62      23.46      15.42
H       1.38      24.55      15.79
H      -0.63      23.09      16.01
