29

C       7.02       2.18       7.77
C      10.63       7.55       5.90
C       7.63       1.48       6.72
O       9.91       8.54       5.43
H       4.05       0.48       7.83
C       4.96      -1.13       5.93
H       5.24       2.36       8.97
C       5.72       1.82       8.16
C       6.98       0.40       6.12
H       8.64       1.74       6.40
C       5.69       0.04       6.53
H      11.45       6.01       7.91
C       8.49       4.31       7.79
C       7.93       4.97       6.68
O       3.71      -1.19       5.93
H      10.21       4.20       9.08
C       7.76       3.24       8.56
C      10.46       5.73       7.58
C       8.59       6.04       6.07
H       8.48       2.74       9.22
C       9.77       4.70       8.22
H       6.94       4.69       6.32
H       7.04       3.71       9.24
H       8.12       6.57       5.24
H       7.46      -0.16       5.32
C       5.06       0.77       7.54
C       9.87       6.42       6.52
O       5.70      -2.07       5.41
O      11.88       7.54       5.88
