22

O       9.70       1.45       1.59
O       8.39       3.29       1.60
O      10.08       5.47       1.26
Cr      11.01       1.21       0.15
Cr       9.27       4.21      -0.02
Cr      12.71       4.20      -0.14
C       8.75       2.16       2.07
C      11.15       5.96       1.74
C      13.27       1.97       1.97
C       8.61       1.85      -1.75
C      11.03       5.60      -2.16
C      13.12       1.63      -1.90
O      12.31       5.69       1.27
O      13.36       3.09       1.33
O      12.35       0.78      -1.38
O       9.60       1.19      -1.20
O       8.28       3.01      -1.41
O       9.98       5.21      -1.53
O      12.19       5.42      -1.74
O      13.25       2.83      -1.46
O      11.00       3.21      -0.00
O      12.46       1.05       1.63
