22

Cr       5.45       1.96       9.49
Cr       3.80      -1.07       9.29
Cr       7.24      -1.02       9.36
C       3.18       1.24       7.46
C       5.69      -2.53       7.27
C       7.13       1.20       7.42
C       3.16       1.04      11.34
C       5.62      -2.75      11.16
C       7.50       1.24      11.51
O       6.86       2.33       8.03
O       4.12       1.89       8.06
O       4.57      -2.25      10.64
O       2.86       0.05       7.82
O       4.62      -2.13       7.85
O       6.85      -2.32       7.77
O       7.82       0.29       8.05
O       6.81       2.21      11.04
O       4.07       1.78      10.85
O       2.80      -0.07      10.83
O       6.80      -2.45      10.79
O       7.78       0.17      10.84
O       5.50      -0.04       9.38
