876

Si      19.63      19.73      21.47
Si      19.56      37.01      21.11
Si      19.60      28.10       6.25
Si       6.59      64.81      27.38
Si       6.56      47.75      27.82
Si       6.60      56.61      42.37
Si      19.62      55.43       6.75
Si      19.55      16.51       6.38
Si      19.63      35.70      40.20
Si       6.58      44.31      12.66
Si       6.55      27.25      13.09
Si       6.59      36.11      27.65
H      16.30      21.36      18.48
H      17.20      20.92      20.63
H      19.79      19.81      16.70
H      20.69      19.34      18.82
H      21.55      21.66      20.68
H      21.98      23.88      21.41
H      18.81      23.60      24.18
H      18.37      21.39      23.48
H      19.77      19.15      24.24
H      18.44      17.76      25.65
H      15.90      16.89      22.40
H      17.23      18.22      20.97
H      20.03      17.16      20.37
H      22.23      19.95      22.69
H      24.00      18.39      22.85
H      21.81      15.60      20.57
H      17.05      21.89      16.17
H      20.43      25.48      24.14
H      15.91      16.83      25.73
H      24.44      15.54      21.13
H      16.13      33.69      21.25
H      17.08      35.75      20.54
H      19.62      32.85      23.46
H      20.56      34.90      22.78
H      21.45      35.30      19.88
H      21.91      34.80      17.59
H      18.80      37.38      16.39
H      18.33      37.90      18.65
H      19.83      39.66      20.18
H      18.58      41.64      20.61
H      15.90      39.44      23.01
H      17.14      37.46      22.62
H      19.93      37.36      23.89
H      22.20      37.86      20.34
H      23.97      38.77      21.61
H      21.72      38.31      25.14
H      16.85      31.41      21.95
H      20.44      36.39      14.81
H      15.87      42.17      21.42
H      24.39      38.79      24.91
H      16.18      29.84       9.07
H      17.13      28.21       7.63
H      19.66      32.18       8.71
H      20.61      30.60       7.26
H      21.55      27.89       8.30
H      22.05      26.16       9.86
H      18.90      23.83       8.31
H      18.40      25.53       6.73
H      19.86      25.96       4.42
H      18.60      25.34       2.49
H      15.92      28.51       3.23
H      17.17      29.17       5.12
H      19.92      30.35       4.58
H      22.25      27.03       5.83
H      24.00      27.74       4.40
H      21.69      31.02       3.12
H      16.88      31.58      10.70
H      20.57      22.97       9.92
H      15.92      25.74       1.64
H      24.46      30.57       2.89
H       3.11      63.18      30.22
H       4.10      63.62      28.10
H       6.55      64.67      32.14
H       7.53      65.14      30.07
H       8.64      63.04      28.25
H       9.25      60.84      27.55
H       6.10      60.85      24.75
H       5.49      63.03      25.41
H       6.97      65.33      24.64
H       5.74      66.63      23.06
H       2.85      67.47      26.02
H       4.08      66.21      27.61
H       6.64      67.40      28.48
H       9.33      64.82      26.45
H      10.99      66.51      26.53
H       8.32      69.10      28.51
H       3.79      62.64      32.58
H       7.86      59.10      24.83
H       2.82      67.55      23.03
H      11.49      68.87      28.02
H       3.17      51.11      27.73
H       4.10      49.04      28.43
H       6.64      51.91      25.48
H       7.56      49.85      26.14
H       8.57      49.40      28.96
H       9.12      49.91      31.22
H       5.95      47.46      32.56
H       5.39      46.94      30.32
H       6.84      45.11      28.77
H       5.58      43.12      28.38
H       2.82      45.32      26.07
H       4.08      47.30      26.41
H       6.78      47.40      25.02
H       9.21      46.82      28.45
H      10.90      45.90      27.07
H       8.48      46.44      23.66
H       3.92      53.39      27.02
H       7.69      48.41      34.07
H       2.73      42.66      27.56
H      11.31      45.99      23.91
H       3.08      54.89      39.65
H       4.07      56.52      41.08
H       6.59      52.58      39.83
H       7.58      54.16      41.26
H       8.62      56.83      40.38
H       9.13      58.55      38.82
H       5.91      60.85      40.27
H       5.39      59.16      41.84
H       6.91      58.78      44.16
H       5.72      59.41      46.12
H       3.02      56.23      45.52
H       4.21      55.56      43.58
H       6.82      54.30      43.98
H       9.27      57.59      42.87
H      10.97      56.79      44.32
H       8.53      53.54      45.46
H       3.78      53.17      37.95
H       7.63      61.73      38.70
H       3.03      58.97      47.08
H      11.45      54.05      45.67
H       1.90      13.20      21.55
H       0.12      15.55      25.35
H       1.79      40.48      26.72
H      25.98      42.47      22.75
H       1.99      31.20       0.71
H      25.87      26.90       0.62
H      14.82      71.34      27.14
H      11.94      69.55      23.74
H      14.80      44.29      22.23
H      12.57      42.16      25.92
H      14.89      53.47      48.08
H      12.46      57.62      48.15
H      19.42      24.59      14.03
H      18.85      20.10      12.41
H      19.22      28.20      20.68
H      18.67      29.06      25.38
H      19.25      32.05      14.13
H      18.70      35.72      11.08
H       6.34      60.04      34.66
H       5.62      64.49      36.31
H       6.50      56.45      28.28
H       5.81      55.68      23.59
H       6.32      52.72      34.63
H       5.68      49.05      37.66
H      16.28      57.06       3.75
H      17.19      56.62       5.91
H      19.78      55.51       1.98
H      20.67      55.04       4.10
H      21.54      57.36       5.96
H      21.97      59.58       6.69
H      18.80      59.30       9.45
H      18.36      57.08       8.75
H      19.76      54.85       9.52
H      18.43      53.46      10.93
H      15.89      52.59       7.67
H      17.21      53.92       6.25
H      20.01      52.86       5.64
H      22.22      55.65       7.96
H      23.99      54.09       8.12
H      21.80      51.30       5.85
H      17.04       1.39       1.45
H      20.42      61.18       9.42
H      15.90      52.53      11.01
H      24.43      51.24       6.41
H      16.12      13.19       6.53
H      17.06      15.25       5.82
H      19.61      12.35       8.73
H      20.55      14.40       8.06
H      21.44      14.80       5.15
H      21.90      14.30       2.87
H      18.79      16.88       1.67
H      18.32      17.40       3.93
H      19.82      19.16       5.46
H      18.57      21.14       5.89
H      15.89      18.94       8.28
H      17.13      16.96       7.90
H      19.92      16.86       9.16
H      22.19      17.36       5.61
H      23.96      18.27       6.89
H      21.71      17.81      10.42
H      16.83      10.91       7.23
H      20.43      15.89       0.09
H      15.86      21.67       6.70
H      24.38      18.29      10.19
H      16.20      37.44      43.02
H      17.15      35.81      41.58
H      19.69      39.78      42.66
H      20.63      38.20      41.21
H      21.58      35.49      42.25
H      22.08      33.76      43.81
H      18.93      31.43      42.25
H      18.43      33.13      40.68
H      19.89      33.56      38.37
H      18.63      32.94      36.44
H      15.95      36.11      37.17
H      17.20      36.77      39.07
H      19.95      37.95      38.53
H      22.28      34.63      39.78
H      24.02      35.34      38.35
H      21.72      38.62      37.07
H      16.91      39.18      44.65
H      20.60      30.57      43.87
H      15.95      33.34      35.59
H      24.49      38.17      36.84
H       3.10      42.68      15.50
H       4.09      43.12      13.38
H       6.54      44.17      17.42
H       7.52      44.64      15.34
H       8.63      42.54      13.53
H       9.23      40.34      12.83
H       6.09      40.35      10.03
H       5.48      42.53      10.69
H       6.96      44.83       9.91
H       5.73      46.13       8.34
H       2.84      46.97      11.29
H       4.06      45.71      12.89
H       6.63      46.90      13.76
H       9.32      44.32      11.72
H      10.98      46.01      11.81
H       8.30      48.60      13.79
H       3.78      42.14      17.85
H       7.85      38.60      10.10
H       2.81      47.05       8.31
H      11.48      48.37      13.30
H       3.16      30.61      13.01
H       4.09      28.54      13.71
H       6.63      31.41      10.76
H       7.55      29.35      11.42
H       8.56      28.90      14.23
H       9.11      29.41      16.50
H       5.94      26.96      17.83
H       5.38      26.44      15.60
H       6.83      24.61      14.04
H       5.56      22.62      13.66
H       2.80      24.82      11.35
H       4.07      26.80      11.68
H       6.76      26.90      10.30
H       9.20      26.32      13.72
H      10.89      25.40      12.35
H       8.47      25.94       8.94
H       3.91      32.89      12.30
H       7.68      27.91      19.34
H       2.72      22.16      12.83
H      11.30      25.49       9.18
H       3.06      34.39      24.93
H       4.06      36.02      26.35
H       6.58      32.08      25.11
H       7.57      33.66      26.54
H       8.61      36.33      25.66
H       9.12      38.05      24.10
H       5.90      40.35      25.55
H       5.38      38.66      27.12
H       6.90      38.28      29.44
H       5.71      38.91      31.40
H       3.01      35.73      30.80
H       4.20      35.06      28.86
H       6.81      33.80      29.26
H       9.26      37.09      28.15
H      10.96      36.29      29.60
H       8.52      33.04      30.74
H       3.76      32.67      23.23
H       7.62      41.23      23.98
H       3.02      38.47      32.36
H      11.44      33.55      30.94
H       1.89      48.90       6.82
H       0.11      51.25      10.63
H       1.78      19.98      11.99
H      25.97      21.97       8.03
H       2.02      38.79      34.65
H      25.89      34.50      34.57
H      14.81      50.84      12.42
H      11.92      49.05       9.02
H      14.79      23.79       7.51
H      12.56      21.66      11.20
H      14.88      32.97      33.36
H      12.45      37.12      33.42
H      19.45      32.19      47.97
H      18.87      27.70      46.36
H      19.21       7.70       5.96
H      18.66       8.56      10.65
H      19.28      39.65      48.07
H      18.73      43.32      45.03
H       6.33      39.54      19.94
H       5.60      43.99      21.58
H       6.49      35.95      13.56
H       5.80      35.18       8.87
H       6.30      32.22      19.91
H       5.67      28.55      22.94
C      23.06      16.85      21.74
C      23.18      18.14      22.30
C      22.13      19.06      22.18
C      20.96      18.74      21.45
C      20.87      17.46      20.86
C      21.92      16.53      20.98
C      18.61      18.88      22.46
C      17.49      18.18      21.96
C      16.72      17.36      22.79
C      17.07      17.17      24.15
C      18.17      17.88      24.67
C      18.95      18.70      23.83
C      19.95      21.26      22.04
C      19.00      20.00      19.96
C      17.74      20.63      19.81
C      17.20      20.89      18.54
C      17.91      20.54      17.37
C      19.20      19.97      17.51
C      19.73      19.70      18.78
C      20.98      22.03      21.44
C      21.24      23.34      21.87
C      20.45      23.94      22.88
C      19.43      23.18      23.48
C      19.17      21.86      23.06
C      23.00      38.63      23.49
C      23.13      38.44      22.10
C      22.09      37.88      21.35
C      20.90      37.46      21.98
C      20.79      37.61      23.39
C      21.84      38.17      24.14
C      18.58      38.34      21.31
C      17.44      38.31      22.14
C      16.72      39.49      22.39
C      17.14      40.72      21.86
C      18.26      40.76      21.01
C      18.99      39.58      20.76
C      19.88      36.70      19.51
C      18.88      35.59      21.66
C      17.61      35.18      21.19
C      17.04      33.96      21.62
C      17.74      33.10      22.50
C      19.04      33.49      22.91
C      19.60      34.70      22.50
C      20.90      35.77      19.16
C      21.18      35.48      17.81
C      20.42      36.07      16.78
C      19.40      36.98      17.12
C      19.12      37.28      18.46
C      23.00      29.44       3.64
C      23.15      28.31       4.46
C      22.12      27.91       5.33
C      20.92      28.66       5.41
C      20.79      29.81       4.59
C      21.82      30.21       3.73
C      18.62      27.60       5.01
C      17.47      28.33       4.62
C      16.74      27.96       3.48
C      17.16      26.88       2.68
C      18.28      26.13       3.07
C      19.02      26.50       4.20
C      19.96      26.86       7.31
C      18.93      29.27       7.22
C      17.66      29.06       7.81
C      17.09      30.03       8.65
C      17.78      31.23       8.96
C      19.08      31.40       8.42
C      19.64      30.44       7.57
C      21.00      27.03       8.26
C      21.30      26.01       9.18
C      20.54      24.82       9.21
C      19.50      24.66       8.27
C      19.21      25.67       7.34
C       9.81      67.93      27.57
C      10.09      66.68      26.99
C       9.11      65.68      26.95
C       7.83      65.90      27.52
C       7.56      67.17      28.10
C       8.54      68.18      28.13
C       5.62      65.58      26.27
C       4.42      66.23      26.65
C       3.70      66.99      25.71
C       4.18      67.15      24.40
C       5.37      66.51      24.01
C       6.09      65.74      24.94
C       7.05      63.30      26.85
C       5.88      64.53      28.86
C       4.62      63.90      28.95
C       4.02      63.64      30.20
C       4.68      63.97      31.40
C       5.98      64.52      31.31
C       6.57      64.79      30.06
C       8.11      62.61      27.48
C       8.48      61.32      27.07
C       7.75      60.65      26.06
C       6.68      61.32      25.44
C       6.32      62.62      25.84
C       9.84      46.10      25.24
C      10.05      46.25      26.63
C       9.05      46.82      27.44
C       7.84      47.27      26.87
C       7.65      47.13      25.47
C       8.66      46.57      24.66
C       5.56      46.43      27.68
C       4.38      46.45      26.89
C       3.65      45.28      26.67
C       4.08      44.05      27.20
C       5.24      44.01      28.00
C       5.98      45.19      28.22
C       6.96      48.06      29.40
C       5.89      49.18      27.28
C       4.63      49.61      27.77
C       4.08      50.83      27.35
C       4.77      51.68      26.46
C       6.06      51.28      26.03
C       6.61      50.06      26.44
C       8.02      48.95      29.70
C       8.36      49.25      31.03
C       7.61      48.70      32.10
C       6.54      47.83      31.80
C       6.22      47.52      30.48
C       9.90      55.09      45.00
C      10.11      56.24      44.22
C       9.11      56.70      43.35
C       7.89      55.99      43.22
C       7.70      54.82      44.00
C       8.71      54.36      44.87
C       5.65      57.14      43.62
C       4.52      56.41      44.06
C       3.83      56.78      45.22
C       4.27      57.87      46.00
C       5.38      58.63      45.57
C       6.07      58.24      44.41
C       7.00      57.84      41.33
C       5.90      55.46      41.40
C       4.60      55.67      40.86
C       4.01      54.71      40.02
C       4.69      53.52      39.67
C       6.02      53.36      40.15
C       6.61      54.31      40.99
C       8.06      57.69      40.40
C       8.37      58.70      39.48
C       7.59      59.88      39.43
C       6.52      60.03      40.33
C       6.22      59.02      41.26
C       1.53      13.70      22.36
C      25.79      14.97      23.32
C       0.48      15.05      24.53
C       2.26      13.79      23.57
C      24.55      15.63      23.16
C       3.47      69.31      23.80
C       1.41      40.91      25.87
C      25.65      41.03      24.30
C       0.31      42.04      23.60
C       2.10      41.91      25.17
C      24.43      40.51      23.82
C       3.30      42.49      25.62
C       1.54      30.28       0.68
C      25.65      28.95       1.19
C       0.26      27.83       0.64
C       2.19      29.15       0.15
C      24.38      28.85       1.80
C       3.46      57.30      48.15
C      14.21      70.97      26.41
C      12.09      70.05      25.81
C      12.53      69.95      24.47
C      14.65      14.66      25.07
C      10.84      69.55      26.23
C      15.88      15.14      24.60
C      14.34      43.82      23.02
C      12.40      43.65      24.40
C      13.02      42.61      25.13
C      14.96      42.80      23.75
C      11.13      44.16      24.78
C      16.21      42.24      23.42
C      14.38      54.35      48.11
C      12.38      55.56      47.59
C      12.95      56.72      48.14
C      14.96      55.52      48.63
C      11.11      55.57      46.97
C      16.17      27.46       0.60
C      19.32      23.64      13.66
C      18.45      21.44      14.03
C      18.96      21.05      12.77
C      19.81      23.26      12.39
C      17.87      20.53      14.95
C      20.38      24.21      11.50
C      19.12      28.36      21.69
C      18.25      29.77      23.41
C      18.78      28.89      24.38
C      19.63      27.45      22.65
C      17.66      31.02      23.73
C      20.23      26.22      22.28
C      19.16      32.84      13.50
C      18.29      33.65      11.41
C      18.81      34.93      11.72
C      19.65      34.13      13.82
C      17.70      33.32      10.17
C      20.23      34.41      15.08
C       6.21      60.98      35.03
C       5.22      63.14      34.71
C       5.76      63.55      35.95
C       6.73      61.38      36.28
C       4.55      64.02      33.81
C       7.39      60.47      37.15
C       6.37      56.31      27.28
C       5.39      54.97      25.55
C       5.94      55.83      24.59
C       6.92      57.19      26.31
C       4.71      53.76      25.23
C       7.58      58.39      26.69
C       6.20      51.92      35.26
C       5.24      51.10      37.30
C       5.80      49.84      37.03
C       6.75      50.65      34.98
C       4.57      51.42      38.51
C       7.41      50.37      33.75
C      23.05      52.55       7.02
C      23.17      53.84       7.58
C      22.12      54.76       7.46
C      20.95      54.44       6.73
C      20.86      53.16       6.14
C      21.91      52.23       6.26
C      18.59      54.58       7.74
C      17.47      53.88       7.23
C      16.70      53.06       8.07
C      17.06      52.87       9.42
C      18.16      53.58       9.95
C      18.93      54.40       9.11
C      19.94      56.96       7.32
C      18.99      55.70       5.23
C      17.73      56.33       5.09
C      17.19      56.59       3.82
C      17.90      56.24       2.65
C      19.18      55.67       2.79
C      19.72      55.40       4.06
C      20.96      57.73       6.72
C      21.23      59.04       7.15
C      20.44      59.64       8.16
C      19.41      58.88       8.76
C      19.16      57.56       8.34
C      22.99      18.13       8.77
C      23.12      17.94       7.38
C      22.08      17.38       6.63
C      20.88      16.96       7.26
C      20.78      17.11       8.67
C      21.83      17.67       9.42
C      18.57      17.84       6.58
C      17.43      17.81       7.42
C      16.70      18.99       7.67
C      17.13      20.22       7.13
C      18.25      20.26       6.29
C      18.98      19.08       6.04
C      19.87      16.20       4.78
C      18.87      15.09       6.94
C      17.60      14.68       6.47
C      17.03      13.46       6.90
C      17.73      12.60       7.78
C      19.03      12.99       8.19
C      19.59      14.20       7.78
C      20.88      15.27       4.43
C      21.17      14.98       3.09
C      20.40      15.57       2.06
C      19.38      16.48       2.40
C      19.11      16.78       3.74
C      23.02      37.04      37.59
C      23.18      35.91      38.41
C      22.15      35.51      39.27
C      20.95      36.26      39.35
C      20.81      37.41      38.54
C      21.85      37.81      37.68
C      18.65      35.20      38.96
C      17.50      35.93      38.57
C      16.77      35.56      37.43
C      17.19      34.48      36.63
C      18.31      33.73      37.01
C      19.05      34.10      38.15
C      19.99      34.46      41.25
C      18.96      36.87      41.16
C      17.69      36.66      41.76
C      17.12      37.63      42.60
C      17.81      38.83      42.91
C      19.10      39.00      42.37
C      19.67      38.04      41.52
C      21.02      34.63      42.21
C      21.33      33.61      43.13
C      20.57      32.42      43.16
C      19.53      32.26      42.22
C      19.23      33.27      41.29
C       9.80      47.43      12.85
C      10.08      46.18      12.27
C       9.10      45.18      12.23
C       7.82      45.40      12.80
C       7.55      46.67      13.37
C       8.53      47.68      13.40
C       5.61      45.08      11.55
C       4.41      45.73      11.92
C       3.69      46.49      10.99
C       4.17      46.65       9.68
C       5.36      46.01       9.29
C       6.07      45.24      10.22
C       7.04      42.80      12.13
C       5.87      44.03      14.14
C       4.60      43.40      14.22
C       4.01      43.14      15.47
C       4.67      43.47      16.68
C       5.97      44.02      16.59
C       6.56      44.29      15.34
C       8.10      42.11      12.76
C       8.47      40.82      12.35
C       7.74      40.15      11.34
C       6.67      40.82      10.72
C       6.31      42.12      11.12
C       9.83      25.60      10.52
C      10.04      25.75      11.91
C       9.04      26.32      12.71
C       7.83      26.77      12.15
C       7.64      26.63      10.75
C       8.64      26.07       9.94
C       5.55      25.93      12.95
C       4.37      25.95      12.16
C       3.63      24.78      11.95
C       4.07      23.55      12.48
C       5.23      23.51      13.28
C       5.96      24.69      13.50
C       6.95      27.56      14.68
C       5.88      28.68      12.56
C       4.62      29.11      13.05
C       4.06      30.33      12.63
C       4.76      31.18      11.74
C       6.04      30.78      11.31
C       6.60      29.56      11.71
C       8.01      28.45      14.98
C       8.35      28.75      16.31
C       7.60      28.20      17.38
C       6.53      27.33      17.08
C       6.20      27.02      15.75
C       9.89      34.59      30.28
C      10.10      35.74      29.49
C       9.10      36.20      28.62
C       7.88      35.49      28.50
C       7.69      34.32      29.28
C       8.69      33.86      30.15
C       5.63      36.64      28.90
C       4.50      35.91      29.34
C       3.82      36.28      30.50
C       4.26      37.37      31.28
C       5.37      38.13      30.84
C       6.06      37.74      29.68
C       6.98      37.34      26.61
C       5.89      34.96      26.68
C       4.59      35.17      26.14
C       4.00      34.21      25.30
C       4.68      33.02      24.95
C       6.01      32.86      25.42
C       6.60      33.81      26.27
C       8.05      37.19      25.68
C       8.36      38.20      24.76
C       7.58      39.38      24.70
C       6.51      39.53      25.61
C       6.21      38.52      26.53
C       1.52      49.40       7.64
C      25.78      50.67       8.60
C       0.47      50.75       9.81
C       2.25      49.49       8.84
C      24.54      51.33       8.44
C       3.45      48.81       9.07
C       1.39      20.41      11.15
C      25.64      20.53       9.57
C       0.30      21.54       8.88
C       2.09      21.41      10.45
C      24.41      20.01       9.10
C       3.29      21.99      10.90
C       1.57      37.88      34.63
C      25.68      36.55      35.14
C       0.29      35.43      34.59
C       2.21      36.75      34.09
C      24.41      36.45      35.75
C       3.45      36.80      33.43
C      14.20      50.47      11.69
C      12.08      49.55      11.09
C      12.51      49.45       9.75
C      14.64      50.36      10.35
C      10.83      49.05      11.51
C      15.87      50.84       9.88
C      14.33      23.32       8.29
C      12.38      23.15       9.68
C      13.01      22.11      10.40
C      14.95      22.30       9.03
C      11.12      23.66      10.06
C      16.20      21.74       8.70
C      14.37      33.85      33.38
C      12.37      35.06      32.87
C      12.94      36.22      33.42
C      14.95      35.02      33.91
C      11.10      35.07      32.25
C      16.19      35.06      34.55
C      19.35      31.24      47.61
C      18.48      29.04      47.97
C      18.98      28.65      46.71
C      19.83      30.86      46.34
C      17.86      56.23       0.23
C      20.41      31.81      45.45
C      19.11       7.86       6.96
C      18.24       9.27       8.69
C      18.76       8.39       9.65
C      19.62       6.95       7.92
C      17.65      10.52       9.01
C      20.22       5.72       7.55
C      19.18      40.44      47.45
C      18.32      41.25      45.36
C      18.83      42.53      45.67
C      19.68      41.73      47.77
C      17.73      40.92      44.11
C      20.22      13.91       0.36
C       6.20      40.48      20.31
C       5.21      42.64      19.98
C       5.74      43.05      21.22
C       6.72      40.88      21.56
C       4.54      43.52      19.09
C       7.38      39.97      22.43
C       6.36      35.81      12.55
C       5.38      34.47      10.83
C       5.93      35.33       9.87
C       6.90      36.69      11.59
C       4.70      33.26      10.51
C       7.57      37.89      11.96
C       6.19      31.42      20.54
C       5.23      30.60      22.57
C       5.79      29.34      22.30
C       6.74      30.15      20.25
C       4.56      30.92      23.79
C       7.40      29.87      19.03
N      17.44      20.99      16.16
N      20.55      25.27      23.20
N      16.32      16.38      24.96
N      24.04      15.92      21.93
N      17.24      31.85      22.74
N      20.54      35.68      15.47
N      16.46      41.87      22.13
N      23.96      39.29      24.19
N      17.27      32.05       9.94
N      20.68      23.89      10.20
N      16.47      26.54       1.56
N      23.95      29.76       2.72
N       4.15      63.55      32.60
N       7.95      59.33      25.77
N       3.54      67.97      23.53
N      10.71      68.94      27.44
N       4.28      52.94      26.23
N       7.78      49.11      33.39
N       3.42      42.90      26.91
N      10.76      45.44      24.49
N       4.14      52.69      38.72
N       7.74      60.80      38.43
N       3.64      58.20      47.15
N      10.81      54.73      45.94
N       0.32      14.30      22.29
N       1.69      14.46      24.60
N       0.21      40.50      25.40
N       1.52      42.44      24.06
N       0.29      30.13       1.20
N       1.51      27.97       0.14
N      12.97      70.55      26.73
N      13.78      14.15      24.16
N      13.09      44.22      23.38
N      14.27      42.23      24.78
N      13.13      54.42      47.59
N      14.21      56.66      48.63
N      18.68      22.72      14.41
N      19.59      21.97      12.00
N      18.47      29.46      22.11
N      19.42      27.77      23.96
N      18.51      32.67      12.32
N      19.44      35.11      12.90
N       5.49      61.87      34.31
N       6.47      62.66      36.68
N       5.65      55.25      26.86
N       6.66      56.91      25.01
N       5.48      52.09      36.39
N       6.51      49.66      35.88
N      17.42      56.69       1.43
N      20.54      60.96       8.47
N      16.31      52.08      10.24
N      24.03      51.62       7.21
N      17.22      11.35       8.01
N      20.52      15.18       0.75
N      16.45      21.37       7.41
N      23.95      18.79       9.47
N      17.30      39.65      43.89
N      20.70      31.49      44.15
N      16.50      34.14      35.51
N      23.98      37.36      36.67
N       4.14      43.05      17.87
N       7.94      38.83      11.05
N       3.53      47.47       8.81
N      10.69      48.44      12.72
N       4.27      32.44      11.51
N       7.77      28.61      18.67
N       3.41      22.40      12.19
N      10.75      24.94       9.76
N       4.13      32.19      24.00
N       7.73      40.30      23.70
N       3.62      37.70      32.43
N      10.80      34.23      31.22
N       0.31      50.00       7.56
N       1.68      50.16       9.88
N       0.19      20.00      10.68
N       1.50      21.94       9.34
N       0.32      37.73      35.14
N       1.54      35.57      34.09
N      12.96      50.05      12.00
N      13.77      49.85       9.44
N      13.08      23.72       8.66
N      14.26      21.73      10.05
N      13.12      33.92      32.87
N      14.20      36.16      33.91
N      18.71      30.32      48.36
N      19.62      29.57      45.95
N      18.46       8.96       7.38
N      19.41       7.27       9.23
N      18.54      40.27      46.27
N      19.47      42.71      46.85
N       5.48      41.37      19.59
N       6.46      42.16      21.96
N       5.64      34.75      12.14
N       6.65      36.41      10.28
N       5.47      31.59      21.67
N       6.50      29.16      21.16
O      23.90      16.06      24.27
O       4.31      69.87      24.70
O      23.75      41.23      22.89
O       4.12      43.00      24.67
O      23.64      27.74       1.56
O       4.20      56.16      48.17
O       9.86      69.45      25.30
O      16.41      14.52      23.53
O      10.36      43.41      25.61
O      16.93      41.70      24.43
O      10.26      56.59      47.28
O      16.83      28.64       0.57
O      18.16      19.22      14.81
O      20.40      25.51      11.89
O      17.96      31.56      24.94
O      20.25      25.91      20.96
O      18.00      34.11       9.10
O      20.24      33.41      16.00
O       4.81      65.34      33.94
O       7.44      59.17      36.76
O       4.96      53.21      24.02
O       7.62      58.70      28.01
O       4.84      50.65      39.59
O       7.43      51.36      32.82
O      23.89      51.76       9.55
O       4.30      49.37       9.97
O      23.74      20.73       8.17
O       4.11      22.50       9.95
O      23.67      35.34      35.51
O       4.19      35.66      33.44
O       9.85      48.95      10.58
O      16.40      50.22       8.80
O      10.35      22.91      10.88
O      16.92      21.20       9.71
O      10.25      36.09      32.55
O      16.86      36.24      34.51
O      18.15      54.91       0.09
O      20.43      33.11      45.84
O      17.95      11.06      10.22
O      20.24       5.41       6.23
O      18.03      41.71      43.05
O      20.23      12.91       1.28
O       4.79      44.84      19.22
O       7.43      38.67      22.04
O       4.95      32.71       9.29
O       7.60      38.20      13.28
O       4.83      30.15      24.87
O       7.41      30.86      18.09
