18

O      10.73      10.32       5.90
C      12.03       8.34       5.90
C      13.24       7.64       3.92
C      13.24       6.25       5.90
C      13.60       4.96       6.58
C      13.60       7.85       2.49
O      13.16       4.79       7.76
H      12.11       9.48       4.06
H      14.26       5.75       4.06
O      13.16       8.91       1.93
O      14.30       6.94       1.93
C      13.65       6.48       4.58
O      14.30       4.13       5.90
C      12.44       8.58       4.58
H      12.11       6.99       7.58
C      12.44       7.18       6.56
O      10.73       9.00       7.76
C      11.10       9.30       6.58
