18

H      20.86      12.04       0.44
C      18.70       9.40       0.45
C      17.49      11.50       0.45
O      22.27      10.06       0.32
C      16.20       9.35       0.37
H      16.55      12.04       0.44
H      18.70       8.31       0.44
C      21.21       9.35       0.37
O      17.56      14.26       0.32
C      18.70      12.20       0.45
O      21.13       8.08       0.32
C      19.91      10.10       0.45
O      16.28       8.08       0.32
O      19.85      14.26       0.32
C      17.49      10.10       0.45
C      18.70      13.69       0.37
C      19.92      11.50       0.45
O      15.13      10.06       0.32
