18

C      23.81       4.96       6.58
H      23.15       5.75       4.06
C      24.17       7.64       3.92
C      26.31       9.30       6.58
C      23.81       7.85       2.49
O      26.68      10.32       5.90
H      25.30       6.99       7.58
C      24.97       8.58       4.58
O      23.11       6.94       1.93
C      25.38       8.34       5.90
C      24.17       6.25       5.90
C      24.97       7.18       6.56
O      24.25       4.79       7.76
O      23.11       4.13       5.90
H      25.30       9.48       4.06
O      24.25       8.91       1.93
O      26.68       9.00       7.76
C      23.76       6.48       4.58
