18

C      17.49      10.10      14.82
C      17.50      11.50      14.82
C      21.21      12.25      14.91
O      21.13      13.52      14.95
O      15.14      11.54      14.95
C      18.70       9.40      14.82
C      16.20      12.24      14.91
C      18.70       7.91      14.91
C      18.71      12.20      14.82
O      19.85       7.34      14.96
O      16.28      13.52      14.95
H      16.55       9.56      14.83
O      22.28      11.54      14.96
C      19.92      11.50      14.82
O      17.56       7.34      14.95
H      20.86       9.56      14.83
H      18.70      13.29      14.83
C      19.92      10.10      14.82
