18

H      23.15      15.85      11.21
O      23.11      17.47       9.37
C      23.81      13.75      12.78
C      24.97      14.42       8.71
C      26.31      12.30       8.70
C      24.17      13.95      11.35
C      23.76      15.12      10.69
O      26.68      11.28       9.37
O      24.25      16.81       7.51
C      24.97      13.02      10.69
O      23.11      14.66      13.34
H      25.30      14.61       7.69
O      24.25      12.68      13.34
C      23.81      16.64       8.70
C      24.17      15.35       9.37
C      25.38      13.26       9.37
O      26.68      12.60       7.51
H      25.30      12.12      11.21
