174

C       1.88      11.94      13.72
C       1.85       3.12       1.44
C       1.84      13.63       3.13
C       1.97       1.35      12.02
C      10.69      11.95      13.68
C      10.66       3.09       1.35
C      10.62      13.70       3.08
C      10.74       1.41      11.96
C       8.22      10.54       8.84
C       8.23       4.50       6.21
C       8.22       8.85       4.51
C       8.21       6.22      10.58
C       4.43      10.57       8.91
C       4.43       4.48       6.23
C       4.40       8.83       4.51
C       4.39       6.20      10.58
C       3.50       2.67       4.47
C       3.98       3.08       3.06
C       2.05       3.08       4.10
C       2.54       3.49       2.71
C       3.76       4.11       4.96
C       2.32       4.52       4.61
C       2.79       4.93       3.19
C       4.24       4.52       3.56
C      10.77       3.97       3.87
C       9.93       3.01       4.76
C       9.71       5.08       4.06
C       8.88       4.12       4.92
C      10.01       3.47       2.63
C       8.95       4.58       2.80
C       8.12       3.62       3.68
C       9.18       2.51       3.50
C       3.72       2.78      10.58
C       4.50       3.70      11.54
C       2.97       4.01      10.00
C       3.75       4.91      10.97
C       2.61       2.63      11.64
C       1.86       3.84      11.06
C       2.64       4.77      12.03
C       3.39       3.54      12.61
C       2.79      11.89       4.94
C       4.23      11.50       4.52
C       2.29      10.47       4.56
C       3.72      10.10       4.13
C       2.52      12.36       3.51
C       2.01      10.96       3.12
C       3.45      10.57       2.69
C       3.95      11.99       3.08
C       8.94      10.49      12.25
C       9.68       9.95      11.00
C       8.13      11.45      11.35
C       8.88      10.92      10.13
C      10.03      11.57      12.40
C       9.22      12.54      11.52
C       9.96      12.00      10.27
C      10.77      11.03      11.17
C       9.18      11.52       2.50
C       8.10      11.35       3.58
C       9.94      10.29       3.04
C       8.86      10.13       4.13
C       9.98      12.42       3.46
C      10.74      11.20       4.00
C       9.65      11.02       5.09
C       8.90      12.26       4.54
C       9.78       3.15      10.15
C      10.30       4.56      10.52
C       8.35       3.55      10.59
C       8.88       4.95      10.96
C      10.08       2.68      11.58
C       8.66       3.07      12.03
C       9.17       4.48      12.40
C      10.60       4.08      11.96
C       3.47      12.38      10.66
C       3.98      12.00      12.07
C       2.04      11.96      11.04
C       2.55      11.56      12.44
C       3.75      10.95      10.18
C       2.33      10.52      10.55
C       2.83      10.13      11.97
C       4.26      10.56      11.58
Cd       0.01      14.20      12.43
Cd      12.58       0.85       2.67
Cd      12.55      12.37       0.84
Cd       0.02       2.67      14.26
Cd       6.29       8.30      10.15
Cd       6.32       6.74       4.95
Cd       6.29      10.13       6.78
Cd       6.33       4.92       8.31
H       2.15       1.23       0.95
H      10.43      13.85      14.16
H       8.47       6.39       6.70
H       4.14       8.68       8.41
H       3.79       1.75       5.01
H       4.65       2.49       2.40
H       1.14       2.48       4.33
H       1.64       5.11       5.26
H       2.50       5.86       2.66
H       5.15       5.12       3.33
H      11.87       4.12       3.93
H      10.33       2.37       5.57
H       9.93       6.14       4.30
H       8.56       5.22       1.99
H       7.02       3.47       3.62
H       8.96       1.45       3.25
H       4.15       1.95       9.98
H       5.59       3.66      11.75
H       2.79       4.21       8.92
H       0.77       3.88      10.86
H       2.20       5.59      12.63
H       3.56       3.33      13.69
H       2.51      12.43       5.87
H       5.15      11.72       5.10
H       1.62       9.83       5.17
H       1.09      10.74       2.53
H       3.72      10.02       1.77
H       4.62      12.62       2.47
H       8.53       9.87      13.08
H       9.88       8.88      10.77
H       7.04      11.64      11.41
H       9.03      13.61      11.75
H      10.37      12.62       9.45
H      11.87      10.85      11.11
H       8.99      11.74       1.43
H       7.00      11.40       3.40
H      10.36       9.46       2.43
H      11.84      11.15       4.18
H       9.85      10.80       6.16
H       8.48      13.08       5.16
H      10.04       2.59       9.22
H      10.97       5.19       9.89
H       7.42       3.33      10.02
H       7.99       2.44      12.65
H       8.92       5.04      13.32
H      11.53       4.29      12.52
H       3.74      13.31      10.11
H       4.65      12.61      12.70
H       1.11      12.53      10.83
H       1.65       9.91       9.92
H       2.56       9.20      12.51
H       5.18       9.98      11.79
O       1.36      13.11      13.90
O       1.45       1.90       1.22
O       1.35      13.81       1.95
O       1.42       1.19      13.19
O       1.55      11.05      14.61
O       1.51       4.00       0.55
O       1.52      14.53       4.01
O       1.63       0.46      11.14
O      11.12      13.16      13.88
O      11.20       1.93       1.19
O      11.17      13.86       1.91
O      11.23       1.23      13.14
O      11.04      11.06      14.55
O      11.00       3.98       0.47
O      10.96      14.58       3.97
O      11.07       0.51      11.08
O      12.59       0.07       0.07
O       7.68       9.38       8.68
O       7.79       5.70       6.41
O       7.69       8.68       5.68
O       7.70       6.39       9.41
O       7.89      11.44       7.97
O       7.86       3.61       7.08
O       7.89       7.96       3.63
O       7.87       7.11      11.47
O       4.84       9.36       8.69
O       4.94       5.65       6.40
O       4.91       8.66       5.69
O       4.92       6.36       9.41
O       4.78      11.45       8.02
O       4.76       3.59       7.11
O       4.73       7.93       3.63
O       4.72       7.09      11.46
O       6.30       7.52       7.55
