22

La      -0.52       0.35       8.63
La       3.46      -0.02       9.11
C      -2.28      -1.08      11.31
C       2.30       1.27       6.61
C       1.88      -2.57       6.27
C       1.09      -1.55       7.04
C       1.80       1.82      10.78
C      -2.33       2.67       8.29
C      -3.15       3.61       7.59
C      -2.95      -2.25       8.16
O      -3.45      -0.66      11.05
O      -1.24      -0.77      10.64
O       1.41      -1.34       8.29
O       0.13      -0.92       6.52
O       3.32       0.54       6.51
O       1.68       1.45       7.73
O       1.20       0.76      10.32
O       3.05       1.94      10.68
O      -2.88       1.61       8.77
O      -1.07       2.84       8.35
O      -2.52      -1.03       8.05
O       4.16      -2.49       8.71
