273

C      17.16       1.55      53.14
C      15.92       2.23      53.14
C      14.65       0.03      53.13
C      24.84      14.85      53.13
C      24.75      13.42      53.13
C      23.50      12.72      53.13
C      22.33      13.52      53.13
C      22.39      14.92      53.13
C      15.88       3.65      53.14
C      17.06       4.40      53.14
C      18.33       3.78      53.14
C      18.35       2.36      53.14
C       8.91      15.19       0.84
C      10.15      14.48       0.81
C      10.13      14.47      51.86
C       8.91      15.19      51.83
C      10.76      14.11      50.65
C      10.20      14.44      49.41
C       8.99      15.16      49.32
C      26.33      15.52      50.55
C      26.33      15.49       2.13
C       9.00      15.13       3.35
C      10.22      14.44       3.26
C      10.79      14.12       2.01
C      17.20       0.03      53.13
C      10.80      14.09      53.13
C      14.62       1.52      53.14
C      26.42      15.53      48.07
C      19.52       4.56      53.13
C      26.38      15.41       4.61
C      23.42      11.31      53.13
C      10.25      14.91      17.41
C       2.47       0.09      17.41
C      19.17       2.29      17.41
C      17.92       1.61      17.41
C      16.73       2.41      17.40
C      16.75       3.84      17.40
C      18.02       4.46      17.40
C      19.20       3.70      17.41
C      12.70      14.98      17.41
C      12.76      13.57      17.41
C      11.59      12.78      17.41
C      10.34      13.48      17.41
C      26.17      15.24      18.70
C      24.95      14.53      18.67
C      24.95      14.54      16.13
C      26.18      15.24      16.11
C      24.32      14.18      14.92
C      24.89      14.50      13.68
C      26.11      15.19      13.60
C      26.74      15.55      14.82
C      17.73       0.01      19.99
C      26.09      15.20      21.21
C      24.87      14.48      21.12
C      24.32      14.15      19.87
C      17.89       0.08      17.41
C      24.29      14.15      17.40
C       2.50       1.58      17.41
C      26.70      15.47      12.35
C      11.67      11.37      17.41
C      17.63       0.00      22.47
C      15.57       4.61      17.40
C      25.27      14.22      35.27
C      25.31      12.81      35.28
C       9.88      12.81      35.27
C       9.91      14.23      35.27
C      11.20      14.86      35.27
C      12.43      14.13      35.26
C      12.33      12.72      35.27
C      11.08      12.07      35.27
C      24.10      12.07      35.28
C      22.85      12.71      35.28
C      22.76      14.13      35.27
C      23.98      14.85      35.27
C      17.59       0.26      36.57
C      17.58       1.68      36.53
C      17.60       1.68      34.00
C      17.59       0.26      33.97
C      17.60       2.41      32.79
C      17.59       1.75      31.55
C      17.58       0.34      31.46
C      26.56      15.18      32.69
C      26.58      15.19      37.85
C      17.60       0.36      39.08
C      17.58       1.77      38.98
C      17.58       2.42      37.74
C      26.57      15.02      35.27
C      17.59       2.45      35.26
C       8.61      12.04      35.27
C      26.50      15.25      30.21
C      21.49      14.76      35.27
C      26.63      15.28      40.33
C      13.69      14.76      35.26
C      17.52       0.12      42.77
C      17.12       1.15      43.66
C      17.21       0.99      45.07
C      26.68      15.34      45.64
C       9.13      14.32      44.74
C       9.03      14.48      43.34
C      16.41       3.22      45.37
C      16.28       3.37      43.98
C      14.44       4.65      43.31
C      26.79      15.33       7.04
C       9.92      15.16       7.93
C       9.73      15.16       9.35
C      26.41      15.34       9.91
C      25.32      15.49       9.01
C      25.51      15.49       7.61
C      12.07      14.73       9.64
C      12.26      14.77       8.25
C       5.30       0.17       7.58
C      26.34      15.25      24.91
C      25.64      14.39      25.79
C      25.74      14.55      27.21
C      17.56       0.02      27.77
C      18.23       0.88      26.88
C      18.14       0.72      25.48
C      24.20      12.74      27.51
C      24.14      12.55      26.11
C       5.99      10.32      25.45
C      21.75       9.45      53.12
C      22.43       8.21      53.13
C      21.71       6.97      53.13
C      20.29       6.94      53.13
C      19.63       8.18      53.12
C      20.33       9.41      53.12
C       5.83       5.79      53.14
C       6.55       7.00      53.14
C       8.79       6.03      53.09
C      14.79       7.00      17.40
C      13.37       7.02      17.40
C      12.66       8.26      17.40
C      13.34       9.51      17.40
C      14.76       9.46      17.40
C      15.46       8.24      17.40
C      10.60       7.05      17.41
C      11.29       5.82      17.41
C       9.33       4.37      17.36
C      16.14      14.25      35.26
C      16.88      15.46      35.26
C      18.31      15.46      35.26
C      19.04      14.24      35.26
C      18.30      13.04      35.26
C      16.89      13.04      35.26
C       9.31       2.29      35.27
C       7.89       2.31      35.27
C       7.62       4.73      35.22
H      10.73      14.14       4.10
H      11.68      13.61       1.99
H      11.65      13.59      50.66
H      10.71      14.16      48.56
H      16.47       0.49      50.52
H      16.45       0.44       2.17
H       7.65      12.88      53.13
H      21.40      13.08      53.13
H      21.52      15.44      53.13
H       1.29       1.88      53.13
H      14.99       4.14      53.14
H      16.97       5.42      53.14
H      11.80      14.54      53.12
H      10.91      13.01      53.13
H      14.06       1.84      52.25
H      14.07       1.84       0.44
H      16.47       0.18       4.64
H      16.64       0.57      48.05
H       2.43       4.10      53.13
H       6.30      10.79      53.12
H      24.36      14.19      21.96
H      23.43      13.64      19.85
H      23.43      13.67      14.94
H      24.39      14.20      12.84
H       0.69       0.49      14.79
H       0.65       0.53      20.03
H      15.83       1.93      17.40
H      18.11       5.48      17.40
H      20.10       4.20      17.41
H       9.48      12.93      17.41
H      13.57      15.50      17.42
H      13.69      13.14      17.41
H      24.17      13.06      17.39
H      23.29      14.60      17.40
H       3.06       1.90      16.53
H       3.06       1.90      18.30
H       0.42       0.65      22.51
H       0.67       0.29      12.33
H      10.83      10.84      17.41
H      14.69       4.15      17.40
H      17.59       2.36      39.82
H      17.57       3.44      37.72
H      17.60       3.43      32.80
H      17.58       2.33      30.70
H       8.58      14.16      32.65
H       8.63      14.17      37.89
H       2.26       0.32      35.27
H      13.17      12.13      35.26
H      11.07      11.05      35.27
H      14.96       0.32      35.27
H      24.12      11.05      35.28
H      22.02      12.13      35.28
H      16.70       3.09      35.26
H      18.48       3.09      35.27
H       8.61      11.40      34.39
H       8.61      11.40      36.16
H       8.85      14.31      40.37
H       8.42      14.27      30.19
H      12.47       0.19      35.27
H       4.75       0.20      35.26
H      16.17       3.98      46.01
H       9.37      13.73      42.74
H       9.52      13.45      45.11
H      14.20       5.60      42.84
H      13.96       4.63      44.30
H      14.03       3.85      42.69
H      12.85      14.56      10.28
H      15.71       0.02       7.01
H      15.39       0.02       9.38
H      15.23      15.46       7.11
H       5.52       0.59       8.56
H       4.82       0.92       6.96
H      23.66      12.15      28.14
H      18.63       1.38      24.87
H      18.79       1.66      27.24
H      23.25       9.63      24.98
H       6.24       9.92      26.43
H       6.89      10.36      24.83
H       6.30       4.88      53.15
H      19.80      10.28      53.12
H      18.60       8.22      53.12
H       9.81       6.39      53.09
H       8.62       5.46      52.17
H       8.65       5.39       0.37
H       9.58       7.10      17.42
H      16.48       8.27      17.39
H      15.29      10.33      17.40
H       9.13       3.30      17.36
H       8.92       4.80      16.45
H       8.85       4.81      18.24
H       9.85       3.15      35.28
H      16.40      12.14      35.26
H      18.78      12.14      35.26
H       6.79       5.44      35.22
H       8.19       4.87      34.31
H       8.24       4.93      36.10
N      16.87       2.04      45.86
N      16.66       2.34      43.18
N      17.49       0.37      41.45
N       8.95      15.14      46.94
N      10.82      14.93      10.13
N      11.18      14.96       7.45
N       9.05      15.22       5.72
N      26.12      15.23      11.22
N      25.00      13.72      27.99
N      24.84      13.39      25.32
N      26.13      15.11      23.58
N      17.61       0.32      29.08
N       4.47       5.82      53.13
N       5.82       8.15      53.13
N      22.29      10.68      53.12
N      19.50       5.85      53.13
N      11.30       8.21      17.41
N      12.65       5.88      17.40
N      15.58       5.91      17.40
N      12.80      10.74      17.40
N       9.96       1.10      35.27
N       7.26       1.10      35.27
N      14.80      14.11      35.26
N      20.38      14.10      35.27
O      15.87       4.55      43.42
O      13.49      14.54       7.69
O      23.32      11.61      25.56
O       7.91       7.17      53.15
O      10.75       4.56      17.42
O       7.07       3.40      35.28
