22

La      11.40       9.02       0.33
La      15.36       9.56      -0.33
C      13.45       6.88       0.89
C       8.68      11.40       0.20
C      14.81       7.70      -4.21
C      14.90       8.32      -2.88
C      13.31      11.69      -0.89
C       8.34       7.17      -0.20
C      11.96      10.88       4.21
C      11.86      10.26       2.88
O      13.87       8.11       1.03
O      12.27       6.65       0.49
O       9.69      10.64       0.00
O      17.23      11.09      -0.12
O      14.19       7.91      -1.89
O      15.76       9.28      -2.69
O      12.90      10.46      -1.03
O      14.49      11.93      -0.49
O      17.07       7.93      -0.00
O       9.53       7.48       0.12
O      12.57      10.66       1.89
O      11.01       9.29       2.69
