22

Nd      11.61       5.61      14.31
Nd      15.38       4.06      14.37
C      13.07       3.13      12.23
C       9.22       8.47      12.39
C       9.82       7.38      13.22
C      14.51       6.71      12.61
C      13.90       6.51      16.47
C      17.76       1.20      16.29
C      17.16       2.29      15.48
C      12.51       2.94      16.06
O      14.31       3.01      12.51
O      12.26       3.85      12.91
O      10.42       7.69      14.31
O       9.81       6.16      12.80
O      15.46       5.88      12.80
O      13.37       6.64      13.18
O      12.67       6.65      16.19
O      14.71       5.77      15.80
O      16.59       1.99      14.36
O      17.15       3.50      15.92
O      11.58       3.79      15.88
O      13.65       2.98      15.48
