1024

H       7.18      18.03      49.80
H       8.17      14.84      52.36
H       5.46      17.43      44.09
H       8.67      16.45      46.63
H       8.22      13.73      47.65
H       4.41      17.61      48.82
H      13.72      21.43      22.30
H      12.73      24.63      24.86
H      15.44      22.04      16.59
H      12.23      23.02      19.13
H      12.68      25.74      20.15
H      16.49      21.86      21.32
H      32.85      37.12       8.54
H      36.05      38.09      11.09
H      33.42      35.47       2.80
H      34.49      38.62       5.37
H      37.16      38.16       6.39
H      33.16      34.39       7.52
H      29.49       2.35      36.04
H      26.29       1.37      38.59
H      28.92       4.00      30.30
H      27.85       0.85      32.87
H      25.17       1.31      33.89
H      29.17       5.08      35.02
H      13.73      17.95      32.87
H      12.77      14.73      30.34
H      15.33      17.47      38.61
H      12.15      16.46      36.05
H      12.59      13.69      35.07
H      16.45      17.52      33.90
H       7.17      21.52       5.37
H       8.13      24.74       2.84
H       5.57      22.00      11.11
H       8.75      23.01       8.55
H       8.31      25.78       7.57
H       4.45      21.95       6.40
H      29.40      37.11      19.13
H      26.17      38.05      16.61
H      28.97      35.58      24.89
H      27.85      38.70      22.31
H      25.13      38.25      21.33
H      29.09      34.43      20.19
H      32.93       2.36      46.63
H      36.16       1.42      44.11
H      33.37       3.89      52.39
H      34.48       0.77      49.81
H      37.20       1.22      48.83
H      33.25       5.04      47.69
H      34.50      21.41       5.46
H      33.51      24.61       2.90
H      36.13      21.97      11.19
H      32.99      23.06       8.63
H      33.44      25.72       7.60
H      37.22      21.71       6.48
H      27.83      18.06      32.96
H      28.82      14.86      30.40
H      26.20      17.50      38.69
H      29.34      16.41      36.12
H      28.89      13.74      35.10
H      25.11      17.75      33.98
H       8.73       2.39      46.69
H       5.59       1.30      44.12
H       8.14       3.97      52.42
H       7.07       0.82      49.86
H       4.44       1.16      48.81
H       8.41       5.06      47.72
H      12.18      37.08      19.19
H      15.31      38.17      16.62
H      12.76      35.50      24.93
H      13.83      38.65      22.36
H      16.46      38.31      21.31
H      12.49      34.40      20.22
H      27.82      21.49      22.36
H      28.78      24.72      24.89
H      26.31      21.92      16.61
H      29.42      23.05      19.19
H      28.98      25.77      20.17
H      25.15      21.80      21.30
H      34.51      17.97      49.86
H      33.56      14.75      52.39
H      36.02      17.55      44.11
H      32.91      16.41      46.69
H      33.36      13.70      47.67
H      37.18      17.67      48.80
H      12.26       2.39      36.12
H      15.42       1.35      38.68
H      12.71       3.86      30.37
H      13.83       0.74      32.95
H      16.51       1.07      33.97
H      12.58       5.02      35.06
H       8.64      37.07       8.62
H       5.48      38.12      11.18
H       8.19      35.61       2.87
H       7.07      38.73       5.45
H       4.40      38.39       6.47
H       8.32      34.44       7.56
H      10.27      14.73      40.09
H      11.65      18.68      40.44
H       9.04      13.64      41.73
H       7.91      14.73      42.53
H       9.39      14.20      43.36
H      10.10      19.41      43.71
H      10.26      20.13      42.11
H      11.70      19.53      42.97
H      11.23      15.96      38.17
H       9.87      16.99      44.67
H      10.63      24.73      12.59
H       9.25      20.79      12.94
H      11.86      25.83      14.23
H      12.99      24.74      15.03
H      11.51      25.27      15.87
H      10.80      20.06      16.21
H      10.64      19.34      14.61
H       9.21      19.93      15.47
H       9.67      23.50      10.67
H      11.03      22.47      17.17
H      36.18      40.28      53.84
H      32.24       0.23      54.20
H      37.29      39.04       0.48
H      36.19      37.91       1.27
H      36.73      39.38       2.11
H      31.52      40.09       2.47
H      30.80      40.25       0.87
H      31.39       0.26       1.73
H      34.95      41.24      51.92
H      33.93      39.85       3.43
H      26.15      40.62      26.34
H      30.09      39.24      26.70
H      25.05       0.43      27.97
H      26.14       1.56      28.77
H      25.61       0.08      29.61
H      30.81      40.81      29.97
H      31.54      40.65      28.37
H      30.95      39.21      29.23
H      27.39      39.65      24.42
H      28.40      41.05      30.93
H      31.34      24.76      15.15
H      29.96      20.81      14.80
H      32.57      25.86      13.52
H      33.70      24.77      12.71
H      32.22      25.30      11.88
H      31.51      20.09      11.52
H      31.37      19.37      13.12
H      29.92      19.96      12.27
H      30.38      23.51      17.08
H      31.76      22.52      10.57
H      31.00      14.71      42.65
H      32.37      18.66      42.29
H      29.77      13.61      41.02
H      28.64      14.70      40.21
H      30.12      14.17      39.38
H      30.82      19.37      39.02
H      30.97      20.10      40.62
H      32.41      19.51      39.77
H      31.95      15.96      44.58
H      30.58      16.95      38.07
H       5.36      40.61       1.40
H       9.32      39.27       1.06
H       4.26       0.40      54.75
H       5.34       1.53      53.94
H       4.82       0.04      53.12
H      10.04      40.80      52.78
H      10.76      40.67      54.38
H      10.18      39.22      53.54
H       6.61      39.69       3.34
H       7.62      41.02      51.81
H      15.54      40.28      28.89
H      11.58       0.20      28.56
H      16.65      39.07      27.25
H      15.56      37.94      26.44
H      16.08      39.43      25.62
H      10.86      40.09      25.28
H      10.14      40.23      26.88
H      10.72       0.25      26.04
H      14.29      41.21      30.84
H      13.29      39.87      24.31
H      31.00      35.38      12.61
H      32.35      39.33      12.93
H      29.78      34.28      14.26
H      28.64      35.37      15.05
H      30.13      34.86      15.89
H      30.79      40.08      16.19
H      30.95      40.79      14.59
H      32.39      40.21      15.45
H      31.94      36.61      10.67
H      30.59      37.68      17.17
H      31.33       4.09      40.11
H      29.98       0.13      40.43
H      32.55       5.18      41.76
H      33.69       4.10      42.55
H      32.21       4.61      43.38
H      31.54      40.82      43.69
H      31.39      40.11      42.09
H      29.95      40.69      42.95
H      30.39       2.86      38.17
H      31.75       1.79      44.67
H      15.45      19.56      26.35
H      11.51      20.94      26.69
H      16.55      18.32      27.99
H      15.45      17.19      28.77
H      15.98      18.66      29.62
H      10.77      19.37      29.95
H      10.05      19.53      28.35
H      10.64      20.97      29.22
H      14.23      20.53      24.42
H      13.17      19.14      30.92
H       5.45      19.90      53.85
H       9.40      18.53      54.19
H       4.36      21.14       0.49
H       5.45      22.28       1.28
H       4.92      20.80       2.12
H      10.14      20.10       2.45
H      10.85      19.93       0.85
H      10.26      18.50       1.72
H       6.67      18.94      51.92
H       7.73      20.33       3.42
H      10.61       4.11      42.64
H       9.27       0.15      42.31
H      11.83       5.21      40.99
H      12.96       4.13      40.20
H      11.48       4.64      39.36
H      10.83      40.85      39.05
H      10.68      40.14      40.65
H       9.23      40.71      39.79
H       9.67       2.87      44.58
H      11.04       1.83      38.07
H      10.30      35.36      15.14
H      11.63      39.32      14.81
H       9.08      34.25      13.49
H       7.94      35.34      12.70
H       9.42      34.83      11.86
H      10.08      40.05      11.55
H      10.22      40.76      13.15
H      11.67      40.19      12.29
H      11.23      36.60      17.08
H       9.86      37.64      10.57
H      26.09      19.90      28.89
H      30.05      18.55      28.57
H      24.99      21.11      27.24
H      26.08      22.25      26.44
H      25.57      20.76      25.61
H      30.79      20.10      25.30
H      31.50      19.96      26.91
H      30.93      18.51      26.05
H      27.33      18.97      30.83
H      28.38      20.31      24.32
H      36.24      19.57       1.39
H      32.28      20.91       1.07
H      37.34      18.36      54.74
H      36.25      17.22      53.94
H      36.76      18.71      53.11
H      31.54      19.37      52.80
H      30.83      19.51      54.41
H      31.41      20.96      53.55
H      35.00      20.50       3.33
H      33.95      19.16      51.82
H       6.50      10.76      50.98
H      10.66      10.52      51.52
H       5.09       8.91      50.91
H       5.67       7.59      51.92
H       5.86       7.51      50.16
H      10.88       6.84      51.64
H      11.43       8.22      52.60
H      11.67       8.20      50.84
H       9.35      12.66      51.87
H       8.40       6.28      52.44
H      14.40      28.71      23.48
H      10.25      28.94      24.02
H      15.81      30.56      23.41
H      15.23      31.88      24.42
H      15.05      31.96      22.66
H      10.02      32.62      24.14
H       9.48      31.25      25.10
H       9.23      31.27      23.34
H      11.55      26.80      24.37
H      12.50      33.19      24.94
H      40.13      36.45       9.70
H      40.34      40.60      10.25
H       0.56      35.04       9.64
H       1.88      35.63      10.66
H       1.96      35.82       8.90
H       2.59      40.85      10.39
H       1.21      41.38      11.34
H       1.23       0.19       9.58
H      38.21      39.29      10.58
H       3.17      38.36      11.19
H      22.20       3.02      37.20
H      21.99      40.30      37.75
H      20.34       4.42      37.14
H      19.03       3.84      38.16
H      18.94       3.65      36.39
H      18.31      40.05      37.88
H      19.69      39.52      38.84
H      19.67      39.27      37.08
H      24.12       0.17      38.08
H      17.74       1.11      38.69
H      14.40      10.68      31.76
H      10.25      10.43      31.21
H      15.82       8.83      31.85
H      15.25       7.50      30.85
H      15.05       7.43      32.61
H      10.03       6.75      31.11
H       9.49       8.12      30.14
H       9.24       8.11      31.90
H      11.55      12.57      30.85
H      12.53       6.18      30.32
H       6.50      28.79       4.26
H      10.65      29.04       3.71
H       5.09      30.64       4.35
H       5.66      31.97       3.35
H       5.85      32.03       5.11
H      10.87      32.72       3.61
H      11.41      31.35       2.64
H      11.66      31.36       4.40
H       9.35      26.90       3.35
H       8.37      33.28       2.82
H      22.12      36.45      18.04
H      21.89      40.60      17.48
H      20.26      35.04      18.12
H      18.94      35.62      17.11
H      18.87      35.81      18.87
H      18.21      40.83      17.37
H      19.59      41.37      16.40
H      19.57       0.19      18.16
H      24.02      39.29      17.13
H      17.64      38.33      16.58
H      40.21       3.02      45.54
H      40.44      40.30      44.98
H       0.64       4.43      45.62
H       1.96       3.85      44.61
H       2.03       3.65      46.37
H       2.69      40.06      44.87
H       1.31      39.53      43.90
H       1.33      39.28      45.66
H      38.31       0.18      44.63
H       3.26       1.13      44.08
H      35.13      28.70       4.28
H      30.98      28.89       3.74
H      36.53      30.56       4.34
H      35.94      31.87       3.31
H      35.74      31.96       5.08
H      30.72      32.56       3.58
H      30.19      31.17       2.63
H      29.94      31.21       4.39
H      32.30      26.76       3.41
H      33.22      33.15       2.78
H      27.20      10.77      31.78
H      31.35      10.58      31.24
H      25.81       8.90      31.84
H      26.39       7.60      30.81
H      26.59       7.51      32.58
H      31.62       6.91      31.08
H      32.14       8.30      30.13
H      32.39       8.26      31.89
H      30.04      12.71      30.91
H      29.12       6.32      30.28
H      27.20      28.78      23.47
H      31.35      28.98      24.03
H      25.80      30.64      23.40
H      26.39      31.96      24.42
H      26.58      32.04      22.65
H      31.61      32.66      24.16
H      32.13      31.27      25.12
H      32.38      31.30      23.36
H      30.04      26.85      24.36
H      29.10      33.25      24.95
H      35.13      10.69      50.97
H      30.98      10.49      51.52
H      36.53       8.82      50.90
H      35.95       7.51      51.92
H      35.75       7.43      50.15
H      30.73       6.81      51.66
H      30.20       8.19      52.61
H      29.95       8.17      50.86
H      32.30      12.61      51.86
H      33.23       6.22      52.44
H      19.42      15.82      37.24
H      19.63      19.98      37.78
H      21.28      14.42      37.18
H      22.59      15.00      38.20
H      22.67      15.19      36.43
H      23.31      20.22      37.93
H      21.92      20.75      38.88
H      21.96      21.00      37.12
H      17.50      18.66      38.12
H      23.89      17.72      38.72
H       1.48      23.65       9.74
H       1.27      19.49      10.28
H      41.06      25.05       9.68
H      39.74      24.46      10.70
H      39.66      24.28       8.94
H      39.02      19.25      10.42
H      40.41      18.71      11.38
H      40.38      18.47       9.62
H       3.41      20.80      10.62
H      38.45      21.74      11.22
H       1.40      15.82      45.50
H       1.18      19.97      44.95
H      40.98      14.41      45.58
H      39.65      14.99      44.57
H      39.58      15.19      46.33
H      38.93      20.21      44.83
H      40.30      20.74      43.87
H      40.28      20.99      45.62
H       3.31      18.66      44.59
H      38.35      17.70      44.05
H      19.50      23.65      18.00
H      19.73      19.49      17.45
H      21.35      25.05      18.08
H      22.68      24.47      17.07
H      22.75      24.28      18.83
H      23.41      19.26      17.33
H      22.03      18.72      16.37
H      22.05      18.47      18.13
H      17.59      20.81      17.09
H      23.98      21.76      16.55
C       7.28      16.15      48.86
C       7.38      17.04      49.95
C       7.72      16.57      51.24
C       7.97      15.19      51.42
C       7.87      14.28      50.34
C       7.52      14.77      49.06
C       6.81      16.62      47.60
C       5.43      16.87      47.41
C       4.93      17.19      46.12
C       5.83      17.25      45.03
C       7.21      17.01      45.20
C       7.69      16.69      46.49
C      13.62      23.32      21.36
C      13.52      22.43      22.45
C      13.19      22.89      23.75
C      12.93      24.27      23.92
C      13.03      25.18      22.84
C      13.38      24.70      21.56
C      14.09      22.85      20.10
C      15.47      22.60      19.91
C      15.97      22.28      18.63
C      15.07      22.22      17.53
C      13.69      22.45      17.70
C      13.22      22.78      19.00
C      34.73      37.21       7.59
C      33.84      37.31       8.69
C      34.31      37.64       9.98
C      35.69      37.89      10.15
C      36.60      37.79       9.07
C      36.11      37.45       7.79
C      34.25      36.76       6.33
C      33.95      35.39       6.13
C      33.65      34.90       4.83
C      33.62      35.81       3.75
C      33.89      37.19       3.93
C      34.22      37.64       5.23
C      27.61       2.26      35.09
C      28.49       2.16      36.19
C      28.02       1.83      37.48
C      26.64       1.57      37.65
C      25.74       1.67      36.57
C      26.23       2.02      35.29
C      28.08       2.71      33.83
C      28.38       4.08      33.63
C      28.68       4.57      32.33
C      28.72       3.65      31.25
C      28.45       2.28      31.43
C      28.11       1.83      32.73
C      13.57      16.09      33.85
C      13.50      16.96      32.74
C      13.17      16.48      31.45
C      12.94      15.10      31.28
C      13.01      14.20      32.37
C      13.33      14.70      33.66
C      14.03      16.56      35.10
C      15.41      16.81      35.31
C      15.89      17.17      36.59
C      14.98      17.26      37.67
C      13.60      17.00      37.49
C      13.14      16.66      36.20
C       7.33      23.38       6.35
C       7.40      22.51       5.24
C       7.73      22.98       3.95
C       7.96      24.37       3.78
C       7.89      25.26       4.88
C       7.57      24.76       6.16
C       6.87      22.90       7.60
C       5.49      22.66       7.81
C       5.01      22.30       9.09
C       5.92      22.20      10.17
C       7.30      22.47       9.99
C       7.76      22.81       8.70
C      27.54      37.26      20.12
C      28.41      37.33      19.00
C      27.93      37.66      17.71
C      26.55      37.88      17.55
C      25.65      37.81      18.64
C      26.16      37.50      19.93
C      28.03      36.82      21.38
C      28.33      35.45      21.59
C      28.66      34.98      22.88
C      28.73      35.91      23.95
C      28.43      37.27      23.76
C      28.08      37.72      22.47
C      34.79       2.20      47.61
C      33.92       2.13      46.50
C      34.40       1.81      45.21
C      35.79       1.59      45.05
C      36.68       1.65      46.14
C      36.17       1.96      47.43
C      34.31       2.65      48.87
C      34.01       4.02      49.09
C      33.67       4.49      50.38
C      33.60       3.56      51.45
C      33.90       2.19      51.26
C      34.25       1.75      49.96
C      34.41      23.29       6.41
C      34.31      22.40       5.31
C      33.97      22.87       4.02
C      33.71      24.25       3.84
C      33.81      25.16       4.92
C      34.16      24.67       6.21
C      34.86      22.82       7.67
C      36.22      22.51       7.87
C      36.71      22.20       9.17
C      35.79      22.17      10.25
C      34.42      22.45      10.07
C      33.97      22.79       8.77
C      27.93      16.18      33.91
C      28.02      17.06      32.81
C      28.36      16.60      31.52
C      28.62      15.22      31.34
C      28.52      14.31      32.42
C      28.17      14.80      33.70
C      27.48      16.65      35.17
C      26.11      16.96      35.37
C      25.63      17.26      36.67
C      26.54      17.29      37.75
C      27.91      17.01      37.57
C      28.36      16.67      36.27
C       6.84       2.23      47.63
C       7.74       2.17      46.54
C       7.29       1.82      45.24
C       5.92       1.53      45.06
C       5.00       1.59      46.13
C       5.47       1.93      47.42
C       7.30       2.68      48.90
C       7.61       4.05      49.10
C       7.91       4.54      50.40
C       7.94       3.63      51.48
C       7.66       2.26      51.30
C       7.33       1.80      50.00
C      14.06      37.24      20.13
C      13.16      37.30      19.04
C      13.61      37.64      17.74
C      14.98      37.94      17.56
C      15.90      37.87      18.63
C      15.43      37.54      19.92
C      13.60      36.78      21.40
C      13.30      35.41      21.60
C      12.99      34.93      22.90
C      12.96      35.84      23.98
C      13.24      37.21      23.80
C      13.57      37.67      22.50
C      27.98      23.35      21.38
C      28.05      22.48      22.49
C      28.37      22.96      23.78
C      28.61      24.35      23.95
C      28.54      25.24      22.85
C      28.23      24.74      21.57
C      27.54      22.87      20.12
C      26.17      22.56      19.91
C      25.71      22.22      18.62
C      26.63      22.16      17.55
C      28.00      22.46      17.74
C      28.44      22.82      19.03
C      34.35      16.11      48.88
C      34.28      16.99      49.99
C      33.96      16.51      51.28
C      33.73      15.12      51.45
C      33.79      14.23      50.35
C      34.10      14.73      49.07
C      34.79      16.59      47.62
C      36.16      16.90      47.41
C      36.63      17.25      46.11
C      35.70      17.31      45.05
C      34.33      17.00      45.23
C      33.89      16.65      46.53
C      14.12       2.17      35.15
C      13.24       2.14      36.26
C      13.70       1.81      37.56
C      15.08       1.54      37.73
C      15.98       1.58      36.65
C      15.49       1.87      35.35
C      13.66       2.62      33.89
C      13.35       3.99      33.68
C      13.01       4.46      32.38
C      12.95       3.53      31.31
C      13.25       2.17      31.50
C      13.61       1.72      32.80
C       6.78      37.29       7.66
C       7.66      37.33       8.76
C       7.20      37.66      10.06
C       5.83      37.92      10.23
C       4.92      37.89       9.15
C       5.41      37.59       7.85
C       7.24      36.85       6.39
C       7.55      35.48       6.18
C       7.89      35.01       4.88
C       7.95      35.93       3.81
C       7.65      37.30       4.00
C       7.30      37.74       5.30
C      11.07      16.68      40.09
C      10.33      15.61      40.62
C       9.69      15.70      41.88
C       9.77      16.92      42.62
C      10.50      18.02      42.09
C      11.14      17.88      40.83
C       8.97      14.50      42.40
C      10.64      19.34      42.77
C      11.67      16.55      38.84
C       9.24      16.98      43.91
C       9.84      22.78      12.59
C      10.58      23.86      13.12
C      11.21      23.77      14.39
C      11.13      22.55      15.13
C      10.40      21.45      14.59
C       9.77      21.58      13.33
C      11.93      24.97      14.90
C      10.26      20.13      15.27
C       9.23      22.92      11.34
C      11.67      22.49      16.41
C      34.23      41.07      53.84
C      35.31      40.33      54.38
C      35.23      39.69       0.64
C      34.01      39.77       1.38
C      32.90      40.50       0.85
C      33.04      41.14      54.59
C      36.43      38.97       1.15
C      31.58      40.63       1.53
C      34.37       0.25      52.60
C      33.94      39.22       2.66
C      28.10      39.83      26.34
C      27.02      40.57      26.88
C      27.11      41.21      28.13
C      28.32      41.13      28.88
C      29.43      40.40      28.34
C      29.30      39.76      27.09
C      25.90       0.50      28.65
C      30.75      40.26      29.02
C      27.97      39.22      25.10
C      28.39       0.24      30.15
C      30.55      22.80      15.16
C      31.28      23.88      14.62
C      31.92      23.80      13.36
C      31.84      22.58      12.62
C      31.12      21.48      13.15
C      30.48      21.61      14.41
C      32.64      25.00      12.84
C      30.98      20.16      12.47
C      29.94      22.94      16.40
C      32.38      22.52      11.34
C      31.78      16.67      42.66
C      31.05      15.59      42.12
C      30.41      15.67      40.86
C      30.49      16.88      40.12
C      31.22      17.99      40.65
C      31.85      17.86      41.91
C      29.70      14.46      40.34
C      31.35      19.31      39.97
C      32.39      16.53      43.90
C      29.95      16.95      38.84
C       7.32      39.84       1.41
C       6.24      40.56       0.87
C       6.32      41.19      54.60
C       7.54      41.12      53.86
C       8.65      40.40      54.41
C       8.52      39.78       0.67
C       5.11       0.47      54.08
C       9.97      40.27      53.73
C       7.19      39.24       2.66
C       7.61       0.22      52.58
C      13.58      41.06      28.91
C      14.66      40.33      28.37
C      14.58      39.70      27.10
C      13.36      39.78      26.36
C      12.25      40.49      26.91
C      12.38      41.12      28.17
C      15.79      39.00      26.58
C      10.93      40.63      26.23
C      13.71       0.23      30.16
C      13.30      39.25      25.08
C      31.78      37.33      12.59
C      31.05      36.26      13.13
C      30.41      36.35      14.39
C      30.48      37.57      15.12
C      31.20      38.68      14.58
C      31.84      38.54      13.32
C      29.70      35.15      14.92
C      31.33      40.01      15.25
C      32.38      37.19      11.34
C      29.95      37.64      16.41
C      30.55       2.13      40.08
C      31.28       3.21      40.63
C      31.92       3.12      41.89
C      31.85       1.89      42.62
C      31.13       0.79      42.08
C      30.49       0.93      40.82
C      32.63       4.32      42.42
C      31.00      40.89      42.74
C      29.95       2.27      38.84
C      32.38       1.82      43.91
C      13.50      20.36      26.34
C      14.57      19.61      26.88
C      14.48      18.97      28.13
C      13.26      19.04      28.87
C      12.16      19.78      28.33
C      12.30      20.42      27.08
C      15.68      18.25      28.65
C      10.84      19.91      29.01
C      13.64      20.97      25.10
C      13.19      18.51      30.15
C       7.40      19.11      53.84
C       6.33      19.85      54.38
C       6.42      20.50       0.64
C       7.64      20.42       1.37
C       8.74      19.69       0.84
C       8.60      19.05      54.58
C       5.22      21.22       1.15
C      10.06      19.55       1.51
C       7.26      18.50      52.60
C       7.71      20.96       2.65
C       9.83       2.15      42.66
C      10.56       3.23      42.11
C      11.20       3.14      40.85
C      11.13       1.92      40.12
C      10.41       0.81      40.66
C       9.78       0.95      41.92
C      11.90       4.35      40.33
C      10.29      40.92      39.99
C       9.23       2.29      43.90
C      11.67       1.85      38.84
C      11.07      37.32      15.16
C      10.34      36.24      14.61
C       9.70      36.32      13.35
C       9.77      37.55      12.62
C      10.49      38.65      13.16
C      11.13      38.52      14.42
C       9.00      35.12      12.83
C      10.62      39.98      12.49
C      11.67      37.18      16.40
C       9.23      37.61      11.34
C      28.05      19.12      28.91
C      26.97      19.85      28.36
C      27.06      20.48      27.10
C      28.29      20.41      26.37
C      29.39      19.70      26.92
C      29.25      19.06      28.18
C      25.86      21.19      26.57
C      30.72      19.56      26.25
C      27.91      18.52      30.16
C      28.35      20.94      25.09
C      34.28      20.34       1.41
C      35.36      19.62       0.86
C      35.27      18.98      54.60
C      34.05      19.05      53.87
C      32.94      19.77      54.42
C      33.08      20.40       0.68
C      36.48      18.28      54.07
C      31.61      19.90      53.75
C      34.42      20.94       2.66
C      33.98      18.53      52.59
C       8.59      10.85      51.23
C       7.35      10.20      51.09
C       7.24       8.79      51.14
C       8.42       8.00      51.33
C       9.69       8.65      51.46
C       9.75      10.06      51.41
C       5.89       8.17      51.03
C      10.98       7.93      51.64
C       8.69      12.24      51.26
C       8.31       6.63      51.52
C      12.31      28.62      23.73
C      13.55      29.27      23.59
C      13.66      30.68      23.64
C      12.48      31.46      23.83
C      11.22      30.82      23.96
C      11.15      29.41      23.91
C      15.01      31.30      23.53
C       9.92      31.54      24.14
C      12.21      27.23      23.76
C      12.59      32.83      24.02
C      40.03      38.54       9.96
C      40.69      37.30       9.82
C       0.67      37.19       9.88
C       1.45      38.38      10.07
C       0.80      39.64      10.19
C      40.81      39.69      10.14
C       1.29      35.84       9.76
C       1.51      40.94      10.39
C      38.64      38.62       9.99
C       2.82      38.28      10.26
C      22.30       0.93      37.46
C      21.64       2.17      37.31
C      20.23       2.27      37.38
C      19.46       1.09      37.57
C      20.11      41.26      37.69
C      21.52      41.20      37.64
C      19.61       3.62      37.26
C      19.40      39.96      37.88
C      23.69       0.84      37.49
C      18.09       1.19      37.76
C      12.31      10.76      31.50
C      13.55      10.11      31.66
C      13.67       8.70      31.61
C      12.49       7.91      31.42
C      11.22       8.55      31.29
C      11.16       9.97      31.32
C      15.02       8.09      31.74
C       9.93       7.83      31.10
C      12.21      12.15      31.46
C      12.60       6.54      31.24
C       8.59      28.71       4.00
C       7.35      29.36       4.16
C       7.23      30.77       4.11
C       8.41      31.55       3.92
C       9.68      30.91       3.79
C       9.74      29.50       3.82
C       5.88      31.38       4.24
C      10.97      31.64       3.60
C       8.69      27.32       3.96
C       8.30      32.92       3.75
C      22.21      38.54      17.78
C      21.55      37.30      17.93
C      20.14      37.19      17.88
C      19.36      38.37      17.68
C      20.01      39.63      17.55
C      21.42      39.69      17.60
C      19.52      35.84      18.00
C      19.30      40.93      17.36
C      23.60      38.63      17.74
C      17.99      38.27      17.50
C      40.12       0.93      45.28
C      40.78       2.17      45.43
C       0.76       2.28      45.38
C       1.54       1.10      45.18
C       0.89      41.26      45.05
C      40.91      41.21      45.10
C       1.38       3.63      45.50
C       1.61      39.97      44.86
C      38.73       0.84      45.24
C       2.91       1.20      45.00
C      33.05      28.58       4.03
C      34.28      29.25       4.17
C      34.38      30.66       4.10
C      33.19      31.43       3.90
C      31.93      30.77       3.78
C      31.88      29.36       3.84
C      35.72      31.29       4.21
C      30.63      31.47       3.58
C      32.96      27.19       4.01
C      33.28      32.80       3.71
C      29.29      10.89      31.53
C      28.05      10.22      31.67
C      27.96       8.81      31.60
C      29.14       8.04      31.40
C      30.40       8.69      31.28
C      30.45      10.11      31.34
C      26.61       8.17      31.71
C      31.70       7.99      31.08
C      29.37      12.27      31.51
C      29.05       6.67      31.21
C      29.29      28.67      23.73
C      28.05      29.34      23.58
C      27.95      30.75      23.64
C      29.14      31.52      23.84
C      30.40      30.87      23.97
C      30.45      29.45      23.92
C      26.60      31.38      23.52
C      31.70      31.57      24.16
C      29.37      27.29      23.76
C      29.04      32.89      24.02
C      33.05      10.80      51.23
C      34.28      10.13      51.08
C      34.38       8.72      51.14
C      33.20       7.95      51.34
C      31.94       8.60      51.47
C      31.89      10.01      51.42
C      35.73       8.09      51.02
C      30.64       7.89      51.66
C      32.96      12.18      51.26
C      33.29       6.58      51.52
C      19.32      17.91      37.50
C      19.98      16.67      37.35
C      21.39      16.57      37.42
C      22.16      17.75      37.61
C      21.51      19.01      37.73
C      20.10      19.07      37.68
C      22.01      15.22      37.30
C      22.22      20.31      37.92
C      17.93      18.00      37.52
C      23.53      17.65      37.80
C       1.59      21.56      10.00
C       0.92      22.80       9.86
C      40.94      22.90       9.92
C      40.17      21.72      10.11
C      40.82      20.45      10.23
C       0.80      20.40      10.18
C      40.32      24.25       9.80
C      40.11      19.15      10.42
C       2.97      21.47      10.02
C      38.80      21.82      10.30
C       1.50      17.91      45.24
C       0.84      16.67      45.39
C      40.86      16.56      45.34
C      40.08      17.74      45.14
C      40.73      19.01      45.01
C       0.71      19.07      45.06
C      40.24      15.21      45.46
C      40.01      20.30      44.82
C       2.88      18.00      45.21
C      38.71      17.64      44.97
C      19.40      21.56      17.74
C      20.06      22.80      17.89
C      21.47      22.90      17.84
C      22.25      21.72      17.65
C      21.61      20.46      17.52
C      20.19      20.40      17.56
C      22.09      24.26      17.96
C      22.32      19.16      17.32
C      18.02      21.47      17.71
C      23.62      21.83      17.47
N       7.96      17.00      44.10
N       3.61      17.28      45.98
N       7.96      12.97      50.49
N       7.77      17.35      52.33
N      12.94      22.47      16.60
N      17.29      22.19      18.48
N      12.94      26.50      22.99
N      13.13      22.12      24.83
N      33.91      37.95       2.84
N      33.48      33.58       4.70
N      37.91      37.89       9.22
N      33.54      37.70      11.07
N      28.42       1.52      30.34
N      28.85       5.88      32.20
N      24.42       1.58      36.72
N      28.80       1.77      38.57
N      12.83      17.05      38.58
N      17.21      17.27      36.75
N      12.93      12.88      32.23
N      13.19      17.23      30.34
N       8.08      22.41      11.08
N       3.69      22.20       9.25
N       7.97      26.58       4.73
N       7.71      22.23       2.85
N      28.48      38.06      24.84
N      28.84      33.67      23.02
N      24.33      37.90      18.51
N      28.68      37.64      16.61
N      33.86       1.41      52.34
N      33.50       5.80      50.52
N      38.00       1.56      46.01
N      33.65       1.82      44.11
N      33.65      22.48      11.16
N      38.02      22.03       9.30
N      33.71      26.47       4.77
N      33.92      22.10       2.93
N      28.68      16.99      38.66
N      24.31      17.44      36.80
N      28.63      12.99      32.27
N      28.41      17.37      30.43
N       7.64       1.49      52.40
N       8.09       5.86      50.52
N       3.68       1.42      46.00
N       8.07       1.78      44.16
N      13.26      37.97      24.90
N      12.81      33.61      23.02
N      17.22      38.05      18.50
N      12.83      37.69      16.66
N      28.79      22.43      16.66
N      24.39      22.04      18.48
N      28.64      26.56      23.00
N      28.36      22.21      24.89
N      33.55      17.04      44.16
N      37.94      17.43      45.97
N      33.69      12.91      50.49
N      33.97      17.26      52.39
N      13.21       1.38      30.42
N      12.82       5.77      32.25
N      17.30       1.41      36.77
N      12.94       1.83      38.65
N       7.69      38.08       2.92
N       8.08      33.69       4.75
N       3.60      38.06       9.27
N       7.96      37.63      11.15
O       7.33      13.89      48.03
O       4.56      16.71      48.45
O      13.57      25.58      20.53
O      16.35      22.76      20.95
O      36.98      37.26       6.76
O      34.07      34.51       7.17
O      25.35       2.20      34.26
O      28.26       4.96      34.67
O      13.49      13.84      34.70
O      16.29      16.63      34.28
O       7.41      25.63       7.20
O       4.61      22.84       6.78
O      25.29      37.35      20.97
O      28.19      34.56      20.56
O      37.04       2.12      48.47
O      34.15       4.91      48.06
O      34.34      25.55       7.23
O      37.10      22.62       6.84
O      27.99      13.92      34.73
O      25.23      16.85      34.33
O       4.59       2.07      48.45
O       7.50       4.93      48.06
O      16.31      37.40      20.96
O      13.40      34.54      20.56
O      28.07      25.60      20.53
O      25.28      22.70      20.93
O      34.26      13.86      48.03
O      37.05      16.77      48.43
O      16.37       1.99      34.31
O      13.48       4.88      34.70
O       4.54      37.48       6.81
O       7.42      34.59       7.20
