207

C      15.01       2.06      50.60
C      13.63       2.30      50.61
C      12.96       1.09      50.62
C      13.89       0.04      50.61
C       4.92      13.47      50.64
C       3.53      13.17      50.67
C       2.61      14.25      50.71
C      11.58       0.82      50.68
C      13.13       3.62      50.62
C      14.04       4.70      50.61
C      -1.61       4.48      50.60
C      -1.13       3.15      50.59
C      16.10       0.14       0.59
C       8.73      14.26       0.13
C       8.72      14.26      49.90
C      16.09       0.13      49.44
C      -7.39      13.74      48.99
C      -7.63      13.87      47.61
C       8.24      14.50      47.12
C      15.85       0.26      48.05
C      15.87       0.27       1.98
C       8.29      14.53       2.91
C      -7.62      13.86       2.41
C      -7.39      13.73       1.03
C      15.27       0.59      50.60
C       2.23       0.09      16.49
C       3.13       1.16      16.51
C       2.42       2.35      16.52
C       1.05       2.07      16.51
C       0.11       3.13      16.53
C       0.54       4.48      16.56
C       1.94       4.73      16.60
C       2.88       3.68      16.57
C       4.52       0.93      16.51
C      -3.52      14.38      16.51
C      -4.41      13.27      16.50
C      -5.81      13.52      16.49
C       0.03       0.10      17.64
C       7.42      14.19      17.18
C       7.42      14.20      15.79
C       0.03       0.12      15.34
C       6.50      13.64      14.88
C       6.73      13.79      13.50
C       7.86      14.49      13.01
C       0.26       0.26      13.95
C       0.26       0.23      19.03
C       7.87      14.44      19.96
C       6.72      13.78      19.47
C       6.49      13.65      18.08
C       0.84       0.59      16.49
C       6.92      12.14      33.55
C       7.39      10.82      33.56
C       8.79      10.84      33.57
C       9.22      12.17      33.56
C      -6.44      12.46      33.59
C      -5.49      11.41      33.61
C      11.09      10.07      33.65
C       9.71       9.78      33.62
C       6.51       9.73      33.57
C       5.12       9.97      33.56
C       4.61      11.29      33.55
C       5.52      12.38      33.54
C       8.03      14.04      34.70
C      16.54       0.59      34.24
C      16.55       0.59      32.84
C       8.05      14.03      32.39
C      -0.53       1.66      31.94
C      -0.52       1.39      30.55
C      16.58       0.06      30.06
C       8.06      13.76      31.00
C       8.03      13.78      36.09
C      16.53       0.08      37.02
C      -0.52       1.41      36.52
C      -0.52       1.67      35.14
C       8.06      13.09      33.55
C      15.77       0.95      41.70
C      15.95       0.64      43.06
C       8.11      14.24      43.46
C       8.60      13.39      42.44
C       8.42      13.70      41.07
C      16.26       0.10      40.67
C      16.09       0.46      39.33
C       8.35      13.92      44.80
C      -7.63      14.76       7.60
C      -7.99      14.75       8.96
C       7.70      14.73       9.36
C       6.73      14.73       8.33
C       7.08      14.74       6.97
C       8.44      14.75       6.57
C      -8.21      14.72       5.23
C       7.31      14.69      10.70
C       7.50      13.34      24.65
C       7.67      13.66      26.01
C      16.87       0.07      26.41
C       0.30       0.92      25.38
C       0.13       0.61      24.02
C       7.99      14.20      23.62
C       7.76      13.87      22.28
C      -0.03       0.44      27.75
C       2.17       7.60      50.62
C       2.59       8.95      50.56
C       1.66      10.01      50.48
C       0.28       9.66      50.49
C      -0.14       8.32      50.55
C       0.79       7.25      50.61
C       0.38       5.91      50.64
C       2.02      11.35      50.32
C      -3.60       8.44      16.52
C      -2.65       7.40      16.46
C      -1.26       7.67      16.37
C      -0.87       9.04      16.37
C      -1.82      10.07      16.44
C      -3.21       9.80      16.50
C      -4.17      10.83      16.53
C      -0.28       6.69      16.21
C       0.02      13.01      33.58
C      -1.36      12.71      33.52
C      -1.82      11.37      33.42
C      -0.83      10.35      33.42
C       0.54      10.65      33.49
C       1.00      11.99      33.56
C       2.37      12.31      33.58
C      -3.16      11.01      33.26
H      -6.94      13.44       3.06
H      -6.56      13.24       0.69
H      -6.54      13.29      49.32
H      -6.92      13.52      46.96
H      15.00       0.74      47.73
H      15.02       0.74       2.31
H       5.60      12.71      50.64
H       1.61      14.08      50.78
H      10.90       1.58      50.71
H      -0.12       2.96      50.59
H      12.13       3.80      50.63
H      13.66       5.65      50.62
H       6.01      13.41      20.11
H       5.65      13.17      17.75
H       5.68      13.13      15.22
H       6.07      13.35      12.86
H       1.09       0.76      13.63
H       1.08       0.74      19.36
H      -0.89       2.91      16.53
H       2.29       5.68      16.67
H       3.88       3.89      16.60
H      -6.47      12.74      16.48
H       5.18       1.72      16.52
H      -2.51      14.23      16.51
H      -0.49       2.20      37.16
H      -0.51       2.64      34.80
H      -0.57       2.63      32.27
H      -0.57       2.18      29.91
H       8.07      12.79      30.68
H       8.05      12.81      36.42
H      -6.13      13.43      33.58
H      -5.32       9.29      33.73
H       9.39       8.81      33.66
H       5.18      13.35      33.53
H       6.86       8.77      33.58
H       4.48       9.17      33.57
H       9.12      12.54      42.67
H      15.59       1.29      43.76
H      15.27       1.81      41.47
H       8.80      13.06      40.37
H      15.57       1.29      39.14
H       8.84      13.07      45.00
H       5.73      14.72       8.57
H      -7.24      14.74       9.66
H      -6.64      14.75       7.36
H       6.34      14.73       6.27
H      -7.24      14.75       5.04
H       6.33      14.69      10.89
H       0.79       1.79      25.62
H       7.29      13.02      26.71
H       7.00      12.48      24.41
H       0.49       1.26      23.32
H       7.30      13.01      22.09
H       0.47       1.28      27.94
H      -0.43      10.39      50.43
H       3.60       9.14      50.54
H       2.88       6.87      50.66
H      -1.15       8.14      50.54
H       1.06       5.19      50.67
H       1.35      11.94      49.88
H       0.12       9.29      16.31
H      -2.98       6.43      16.44
H      -4.59       8.19      16.56
H      -1.47      11.04      16.42
H      -5.13      10.60      16.57
H       0.56       6.97      15.77
H      -1.11       9.37      33.35
H      -2.04      13.48      33.50
H       0.29      13.99      33.62
H       1.20       9.87      33.47
H       2.66      13.26      33.63
H      -3.34      10.14      32.82
N       8.02      14.66      45.81
N      -0.86       5.58      50.60
N       3.13      11.88      50.72
N       8.03      14.63       4.22
N       8.12      14.61      11.70
N      -3.83      12.07      16.50
N      -0.37       5.47      16.62
N       8.08      14.61      21.28
N       8.02      14.55      28.75
N       3.28      11.39      33.55
N      -4.17      11.70      33.67
N       8.05      14.58      38.33
