17

Cd       3.60       5.05      12.60
H       4.75       7.57      11.79
H       3.76       7.59      13.13
N       1.65       5.27      13.88
N       4.75       5.70      14.42
N       3.79       7.43      12.11
N       5.60       4.86      11.40
C       0.95       5.11      14.81
N       2.53       4.30      10.69
N       3.48       2.69      13.07
C       5.54       5.02      14.97
C       2.82       8.13      11.34
H       2.52       2.60      13.43
H       3.47       2.45      12.07
C       6.39       5.22      10.59
C       1.64       4.85      10.13
C       4.44       2.02      13.88
