9

Ni       0.27       5.76       9.30
N      -1.97       7.41       8.13
N      -1.71       4.86      11.40
N       2.29       6.53       7.20
N       2.53       4.30      10.69
C      -1.09       6.77       8.56
C      -0.93       5.22      10.59
C       1.49       6.25       8.01
C       1.64       4.85      10.13
