20

C      17.87      12.67      10.26
C      18.64      12.54      11.41
C      19.40      13.64      11.85
C      19.27      14.84      11.15
C      18.48      14.89      10.01
C      20.30      13.56      13.02
C      19.97      12.78      14.14
C      20.82      12.80      15.24
C      22.29      14.25      14.19
C      21.50      14.29      13.05
H      17.29      11.83       9.87
H      18.68      11.58      11.93
H      19.80      15.74      11.47
H      18.41      15.79       9.41
H      19.03      12.22      14.18
H      20.60      12.22      16.14
H      23.22      14.81      14.27
H      21.82      14.87      12.19
N      17.82      13.81       9.55
N      21.96      13.52      15.28
