48

C      15.10      11.94       6.94
C      13.88      11.12       6.72
C      12.94      11.50       5.75
C      11.75      10.79       5.59
C      11.48       9.67       6.41
C      12.45       9.28       7.35
C      13.62       9.99       7.53
C      10.20       8.94       6.33
C       8.98       9.60       6.13
C       7.76       8.91       6.16
C       7.77       7.52       6.38
C       8.98       6.82       6.55
C      10.18       7.55       6.52
C       6.48       9.64       6.00
C       6.37      10.99       6.37
C       5.16      11.67       6.24
C       4.03      11.02       5.73
C       4.14       9.68       5.32
C       5.35       9.01       5.45
C       2.71      11.73       5.68
C       9.02       5.35       6.75
C       8.03       4.50       6.23
C       8.12       3.12       6.35
C       9.24       2.54       6.98
C      10.22       3.37       7.53
H      13.14      12.37       5.14
C       9.40       1.05       7.07
H      11.04      11.10       4.83
H      12.24       8.42       7.99
H      14.35       9.69       8.28
H       8.99      10.68       5.97
H       6.83       6.99       6.47
H      11.12       7.02       6.62
H       7.21      11.50       6.82
C      10.10       4.76       7.44
H       5.09      12.71       6.54
H       5.41       7.97       5.12
H       3.26       9.18       4.92
H      11.08       2.94       8.04
H      10.87       5.38       7.89
H       7.18       4.93       5.69
H       7.35       2.47       5.95
O      15.74      11.90       8.02
O      15.46      12.76       5.98
O       1.76      11.09       5.09
O       2.62      12.88       6.21
O       8.36       0.31       6.93
O      10.56       0.57       7.28
