11

P      -0.13       9.36      12.51
H       1.49       8.18      12.57
O       1.29       8.82      12.10
O      -0.62       8.75      13.78
O      -0.09      10.86      12.44
H      -2.06       9.21      11.19
O      -0.55       9.32       9.91
O      -1.78       6.71      12.01
O      -0.92       6.74       9.94
C      -1.17       8.81      11.10
C      -1.30       7.31      11.01
