74

Cd      10.87       0.44       1.97
Cd       7.60      10.22       1.39
Cd      10.77       9.25       0.31
Cd       9.75       9.60      10.12
Cd      13.01      -0.18      10.70
Cd       9.85       0.79      11.79
H      12.21       0.02       6.39
H      15.27       2.59      10.93
H       7.23       5.51       1.39
H      11.42       3.49       1.40
H      12.30       4.30       0.09
H       4.97       0.58       3.43
H       7.10       1.56       3.76
H       6.41       2.33       2.33
H       8.41      10.02       5.71
H       5.35       7.46       1.16
H      13.39       4.53      10.70
H       9.20       6.55      10.70
H       8.32       5.74      12.00
H      15.65       9.46       8.67
H      13.52       8.49       8.33
H      14.21       7.71       9.76
C      13.06      -0.27       5.77
C       1.93       2.39       0.73
C      15.82       1.88      11.58
C      10.88       9.85       3.25
C       8.30       7.25       0.57
C       7.81       5.85       0.53
C      12.84      -0.29       4.30
C       8.09       1.09       1.95
C      11.97       3.32       0.45
C       5.73       0.29       2.69
C       6.81       1.38       2.72
C       7.09       2.02       9.07
C       7.56      10.31       6.32
C      18.69       7.65      11.37
C       4.79       8.16       0.52
C       9.74       0.19       8.85
C      12.32       2.79      11.52
C      12.81       4.20      11.56
C       7.78      10.34       7.79
C      12.53       8.95      10.14
C       8.64       6.72      11.64
C      14.88       9.75       9.40
C      13.81       8.66       9.38
C      13.53       8.02       3.02
O       1.65       1.23       1.23
O       8.14       0.25       0.98
O      11.05       8.85       2.43
O       7.61       8.00       1.35
O      11.17       9.85       4.44
O       7.12      10.28       3.55
O      11.65       0.03       3.94
O       3.06       2.80       0.42
O       7.38       3.16       9.03
O      15.57       0.67      11.48
O       5.11       0.16       1.39
O       6.68       0.92       9.12
O      14.11       6.74      11.93
O       9.14       1.70       2.38
O      18.96       8.81      10.86
O      12.47       9.79      11.11
O       9.57       1.19       9.66
O      13.01       2.04      10.75
O       9.44       0.20       7.65
O      13.49      -0.23       8.54
O       8.96      10.02       8.15
O      17.55       7.24      11.68
O      13.23       6.88       3.06
O       5.05       9.37       0.61
O      15.51       9.89      10.70
O      13.95       9.12       2.97
O       6.51       3.30       0.17
O      11.48       8.35       9.71
