20

H       7.26      -2.19       7.72
H       5.89      -2.10       9.79
H       5.50      -6.40       9.52
H       6.92      -6.32       7.50
H       2.96      -2.17      13.17
H       4.33      -2.09      11.10
H       4.70      -6.40      11.40
H       3.29      -6.29      13.41
C       6.85      -3.09       8.17
C       6.07      -3.06       9.32
C       5.54      -4.25       9.85
C       5.87      -5.44       9.18
C       6.66      -5.41       8.04
C       3.37      -3.07      12.72
C       4.15      -3.05      11.57
C       4.68      -4.25      11.05
C       4.34      -5.43      11.73
C       3.55      -5.39      12.86
N       7.14      -4.25       7.54
N       3.07      -4.22      13.36
