34

N      10.38       4.68       6.43
N      14.56       3.08       4.19
N      13.72       6.65       5.42
N      13.04       2.26       7.75
H      12.88       2.33       2.35
H       9.25       3.51       4.38
H      14.50       3.41       9.58
H      15.29       7.08       7.47
O      10.84       1.99       1.00
O       8.97       1.93       2.24
O      15.04       2.71       3.10
O      15.22       3.26       5.22
O       9.14       4.70       6.36
O      11.05       5.19       7.34
O      15.78       5.03      10.90
O      16.78       6.60       9.65
O      13.01       1.74       8.87
O      12.67       1.71       6.69
O      14.28       7.74       5.49
O      12.95       6.30       4.51
C      10.21       2.23       2.11
C      10.97       2.85       3.22
C      12.37       2.80       3.19
C      13.11       3.29       4.25
C      12.52       3.92       5.37
C      11.11       3.99       5.34
C      10.34       3.45       4.32
C      15.89       5.68       9.79
C      15.00       5.29       8.66
C      14.36       4.06       8.72
C      13.59       3.62       7.65
C      13.35       4.42       6.51
C      13.96       5.69       6.52
C      14.81       6.11       7.55
