22

O      10.24       3.64      19.30
O      10.04       5.80      19.43
O       6.69       4.68      13.12
O       8.81       4.70      12.53
C       7.92       4.70      13.38
C       8.32       4.69      14.84
C       9.66       4.68      15.09
C      10.17       4.69      16.39
C       9.32       4.73      17.47
C       7.92       4.71      17.26
C       7.39       4.68      15.94
C       5.97       4.66      15.82
C       5.16       4.65      16.91
C       5.69       4.68      18.20
C       7.04       4.69      18.38
C       9.91       4.74      18.86
H      10.25       4.66      14.37
H      11.09       4.67      16.53
H       5.59       4.65      14.97
H       4.24       4.62      16.80
H       5.12       4.68      18.93
H       7.38       4.70      19.24
