22

C       9.10       2.23      22.99
C       8.11       1.20      23.43
C       7.13       0.64      22.58
C       6.95       1.04      21.23
C       6.00       0.49      20.47
C       5.14      -0.50      20.97
C       5.26      -0.91      22.25
C       6.24      -0.35      23.11
C       6.41      -0.78      24.47
C       7.38      -0.21      25.23
C       8.20       0.79      24.74
C       5.60      -1.83      25.13
H       7.51       1.69      20.88
H       5.90       0.77      19.58
H       4.49      -0.88      20.42
H       4.68      -1.57      22.58
H       7.49      -0.50      26.10
H       8.82       1.19      25.30
O       9.38       3.11      23.82
O       9.62       2.11      21.85
O       6.20      -2.60      25.91
O       4.35      -1.88      24.92
