22

O      -2.83       4.65      17.92
O      -0.75       4.65      17.10
C      -4.95       4.78      12.03
C      -2.00       4.67      16.99
C      -2.59       4.71      15.61
C      -3.57       3.80      15.34
C      -4.24       3.79      14.13
C      -4.01       4.77      13.18
C      -2.98       5.74      13.41
C      -2.23       5.68      14.62
C      -1.19       6.61      14.83
C      -0.92       7.57      13.89
C      -1.67       7.63      12.71
C      -2.66       6.74      12.47
H      -3.78       3.16      15.98
H      -4.86       3.12      13.95
H      -0.68       6.58      15.60
H      -0.24       8.19      14.04
H      -1.47       8.29      12.08
H      -3.14       6.80      11.67
O      -5.38       3.66      11.64
O      -5.32       5.89      11.57
