22

O      -4.31       6.18      19.92
O      -5.92       7.66      20.19
C      -2.60      11.49      16.37
C      -4.82       7.29      19.71
C      -4.19       8.32      18.80
C      -3.52       9.38      19.35
C      -3.04      10.41      18.54
C      -3.24      10.40      17.18
C      -3.96       9.32      16.57
C      -4.42       8.26      17.40
C      -5.13       7.19      16.81
C      -5.42       7.18      15.50
C      -5.00       8.23      14.67
C      -4.29       9.27      15.19
H      -3.39       9.42      20.27
H      -2.58      11.12      18.93
H      -5.41       6.48      17.35
H      -5.90       6.47      15.13
H      -5.21       8.23      13.77
H      -4.01       9.96      14.62
O      -2.14      11.16      15.25
O      -2.51      12.65      16.85
