22

O       7.25       7.72       8.03
O       8.94       6.32       7.68
C       8.37       7.40       7.50
H      10.88      11.04       6.64
H      10.12       9.31       7.98
H       8.82      10.35       2.53
H       7.13       9.00       1.80
H       6.22       7.38       3.22
H       7.05       7.11       5.33
O      10.78      12.72       4.66
O      10.97      11.25       3.01
C      10.58      11.57       4.16
C       9.91      10.52       4.98
C      10.29      10.41       6.29
C       9.82       9.39       7.11
C       8.91       8.48       6.61
C       8.42       8.61       5.28
C       8.95       9.62       4.43
C       8.46       9.72       3.11
C       7.45       8.90       2.67
C       6.91       7.93       3.52
C       7.40       7.77       4.79
