22

C      14.01      17.86       5.59
C      14.49      17.99       6.91
C      13.97      19.00       7.77
C      14.46      19.10       9.09
C      15.47      18.28       9.53
C      16.01      17.30       8.68
C      15.52      17.15       7.41
H      12.79      18.69       4.22
H      14.10      19.73       9.67
H      15.79      18.37      10.40
H      16.70      16.76       8.98
O      15.67      17.10       4.17
O      13.98      15.70       4.52
H      15.87      16.48       6.87
H      12.04      20.42       5.56
O      12.14      22.09       7.53
O      11.95      20.63       9.19
C      14.55      16.78       4.70
C      12.34      20.95       8.04
C      13.01      19.90       7.22
C      12.63      19.79       5.91
C      13.10      18.76       5.09
