22

H       5.51       0.23      13.77
H       6.83       1.88      12.84
H       7.46      -3.75      12.35
H       9.31      -4.29      11.14
H      10.71      -2.62      10.32
H      10.27      -0.43      10.75
C       5.45      -2.30      13.49
C       6.49      -1.33      13.02
C       6.24      -0.01      13.25
C       7.05       0.99      12.72
C       8.19       0.65      12.01
C       8.53      -0.71      11.80
C       7.66      -1.73      12.30
C       8.01      -3.07      12.03
C       9.11      -3.40      11.31
C       9.96      -2.39      10.82
C       9.69      -1.09      11.07
O       4.83      -2.03      14.54
O       5.22      -3.28      12.74
C       8.94       1.80      11.37
O       8.26       2.61      10.72
O      10.19       1.86      11.55
