22

C       0.61      11.68       1.29
C       1.65      10.71       0.83
C       1.40       9.39       1.05
C       2.21       8.39       0.52
H       0.67       9.15       1.57
C       3.69      10.08      -0.39
C       2.82      11.10       0.10
C       3.17      12.45      -0.17
H       1.99       7.50       0.64
C       3.34       8.72      -0.19
C       4.85      10.46      -1.13
H       5.43       9.81      -1.45
C       5.12      11.77      -1.38
H       2.62      13.13       0.16
C       4.27      12.77      -0.89
H       4.47      13.67      -1.06
H       5.87      12.00      -1.88
O      -0.01      11.41       2.34
O       0.38      12.66       0.54
C       4.10       7.58      -0.83
O       3.42       6.77      -1.48
O       5.35       7.51      -0.65
