22

O       4.54       6.27      11.62
C       0.76      11.21      12.93
O       4.78       7.27       9.66
O       1.36      11.98      13.71
O      -0.49      11.26      12.73
C       4.26       7.15      10.79
C       3.26       8.18      11.24
C       2.29       8.74      10.39
C       2.11       8.34       9.04
C       1.16       8.89       8.27
C       0.30       9.88       8.77
C       0.42      10.29      10.06
C       1.40       9.73      10.91
C       1.57      10.15      12.27
C       2.54       9.59      13.03
C       3.36       8.59      12.54
H       2.67       7.69       8.68
H       1.06       8.61       7.38
H      -0.35      10.25       8.22
H      -0.16      10.94      10.38
H       2.65       9.88      13.90
H       3.98       8.18      13.10
