22

H       4.27      14.04      22.22
H       3.43      14.05      20.06
H       8.93      14.02      21.63
H      10.29      14.00      19.80
H       9.41      14.06      17.66
H       7.14      14.07      17.35
C       6.61      14.08      23.21
C       6.20      14.07      21.76
C       4.86      14.06      21.51
C       4.35      14.07      20.20
C       5.20      14.11      19.12
O       4.49      15.18      17.16
O       4.28      13.02      17.30
C       6.60      14.09      19.34
C       7.13      14.06      20.65
C       8.55      14.03      20.78
C       7.49      14.07      18.21
C       8.84      14.05      18.40
C       9.36      14.02      19.68
C       4.61      14.11      17.74
O       7.83      14.06      23.47
O       5.71      14.08      24.07
