22

C       1.31      11.35      16.90
C      -0.90       7.18      20.24
C      -0.23       8.23      19.42
C      -0.61       8.34      18.11
C      -0.14       9.37      17.29
C       0.77      10.27      17.79
C       1.26      10.14      19.11
C       0.73       9.13      19.96
C       1.23       9.03      21.29
C       2.23       9.85      21.73
C       2.77      10.83      20.88
C       2.29      10.98      19.61
H      -1.20       7.71      17.76
H      -0.44       9.44      16.41
H       0.86       8.40      21.87
H       2.56       9.76      22.60
H       3.47      11.37      21.18
H       2.63      11.65      19.07
O       2.43      11.03      16.36
O       0.74      12.43      16.72
O      -1.10       6.04      19.73
O      -1.29       7.50      21.39
