74

La       2.32       3.44      10.83
La       6.28      11.36       0.09
H       5.46      11.19       9.61
H       5.83       9.40      10.14
H       6.68       7.25      10.98
H       0.83       6.57       7.31
H       1.06       7.05       5.43
H       1.63       7.83       3.16
H       7.37      11.43       3.80
H       6.22      12.49       4.90
H       4.60       2.32       6.40
H       1.50      12.49       7.84
H       1.87      12.47       5.98
H       2.72      12.63       3.68
H       4.79       8.93       4.12
H       5.02       7.27       5.13
H       5.59       5.33       6.55
H       3.41       7.01       9.80
H       2.26       8.38      10.49
H       0.64       6.79       0.32
C       4.33      13.51       8.99
C       5.12      12.63       8.10
C       5.62      11.42       8.57
C       6.32      10.54       7.72
C       6.79       9.25       8.20
C       6.46       8.80       9.50
C       6.94       7.59       9.98
C       7.78       6.81       9.18
C       0.47       5.58       9.72
C       8.09       7.22       7.88
C       7.58       8.41       7.35
C       7.85       8.82       5.98
C       0.68       8.01       5.09
C       1.01       8.43       3.82
C       0.56       9.68       3.36
C       0.99      10.20       2.04
C       7.69      10.47       4.19
C       7.36      10.07       5.50
C       6.59      10.94       6.38
C       6.06      12.18       5.93
C       5.32      13.00       6.75
C       8.29      12.58      10.24
C       1.16      11.47       9.67
C       1.66      11.56       8.38
C       2.36      10.49       7.79
C       2.83      10.57       6.41
C       2.50      11.67       5.59
C       2.98      11.78       4.30
C       3.82      10.78       3.79
C       4.43      10.93       2.45
C       4.13       9.67       4.56
C       3.62       9.51       5.86
C       3.89       8.32       6.66
C       4.64       7.24       6.15
C       4.97       6.14       6.93
C       4.52       6.07       8.26
C       4.95       4.97       9.15
C       3.73       7.10       8.76
C       3.40       8.23       8.00
C       2.63       9.33       8.57
C       2.10       9.27       9.88
C       1.36      10.30      10.42
O       4.61      13.51      10.27
O       3.40      14.23       8.55
O       7.94       5.07      10.83
O       1.48       5.07       9.13
O       1.91       9.64       1.38
O       0.45      11.31       1.59
O       0.65      13.81       9.87
O       7.36      12.37      11.07
O       3.98      11.85       1.64
O       5.44      10.22       2.15
O       5.87       4.17       8.80
O       4.41       4.86      10.33
