126

C       0.24      19.49      11.46
C       0.24      18.62       9.24
C       0.24      17.13      11.10
C       0.19      18.84       7.84
C      10.04      20.13       7.29
C       9.93      20.32       5.90
C       0.01      19.23       5.01
C       0.23      17.94       5.55
C       0.32      17.75       6.94
C       0.19      20.59      12.35
C       0.32      21.92      11.86
C       0.23      23.02      12.72
C       0.01      22.84      14.11
C       9.93      21.52      14.61
C      10.04      20.42      13.74
C       0.20      15.81      11.61
C       0.32      15.57      13.00
C       0.23      14.27      13.52
C       0.02      13.16      12.67
C       9.94      13.39      11.28
C      10.05      14.69      10.76
C       9.90      23.96      14.96
C       9.90      11.86      13.22
C       9.90      19.40       3.61
C       0.14      -0.95      20.29
C       0.14      -0.11      22.52
C       0.14       1.41      20.68
C       0.13      -0.34      23.92
C       0.16      -1.65      24.46
C       0.16      -1.87      25.85
C       0.10      -0.78      26.75
C       0.08       0.53      26.22
C       0.10       0.75      24.83
C       0.13      -2.05      19.39
C       0.10      -3.38      19.87
C       0.08      -4.47      18.99
C       0.10      -4.27      17.59
C       0.16      -2.95      17.10
C       0.16      -1.86      17.98
C       0.13       2.73      20.17
C       0.09       2.98      18.78
C       0.06       4.28      18.27
C       0.07       5.40      19.13
C       0.14       5.17      20.53
C       0.15       3.86      21.04
C       0.13      -5.39      16.71
C       0.09       6.72      18.61
C       0.13      -0.99      28.15
C       9.69      -0.12      30.37
C       1.23      18.05       0.47
C       0.28      18.56       1.38
C       8.71       0.37      31.27
C       7.41       0.66      30.91
C       9.66       8.18      16.73
C       1.20       9.82      15.99
C       0.27      10.34      15.06
C       8.71       8.69      15.80
C       7.40       8.26      15.68
C       9.69      -7.74      16.37
C       1.23      27.36      15.36
C       0.28      26.32      15.35
C       8.71      -8.77      16.33
C       7.41      -8.60      16.77
H       0.28      23.96      12.31
H       0.45      22.10      10.86
H       9.77      21.36      15.60
H       9.93      19.48      14.14
H       0.45      16.34      13.66
H       0.28      14.15      14.54
H       9.94      14.81       9.75
H       9.78      12.61      10.64
H       0.46      16.80       7.28
H       0.28      17.12       4.94
H       9.77      21.27       5.55
H       9.93      20.94       7.90
H       0.09      -5.41      19.39
H       0.08      -3.57      20.88
H       0.19      -2.77      16.09
H       0.20      -0.92      17.58
H       0.08       2.20      18.11
H       0.07       4.40      17.25
H       0.19       3.74      22.05
H       0.16       5.95      21.18
H       0.09       1.71      24.50
H       0.09       1.34      26.84
H       0.18      -2.83      26.19
H       0.20      -2.47      23.84
H       2.18      17.82       0.77
H       7.01       0.13      30.18
H       1.32      18.15       3.04
H       8.87       0.45      28.63
H       2.13      10.22      16.07
H       7.03       7.63      16.35
H       1.30      11.99      14.60
H       8.85       6.39      17.10
H       2.18      27.22      15.01
H       7.01      -7.70      16.64
H       1.32      25.08      14.16
H       8.86      -6.52      17.72
N       0.23      19.66      10.12
N       0.23      17.37       9.76
N       0.23      18.21      11.92
N       0.14      -1.13      21.63
N       0.14       1.15      22.01
N       0.14       0.33      19.84
N       0.88      -0.39      30.86
N       9.09      18.82       0.88
N       0.56      18.67       2.71
N       9.50      -0.19      29.01
N       0.84       8.77      16.75
N       9.09       9.75      15.04
N       0.55      11.44      14.31
N       9.46       7.05      17.47
N       0.88      -8.03      15.88
N       9.09      26.62      15.82
N       0.56      25.11      14.77
N       9.50      -6.53      16.98
O       8.98      20.31       3.20
O       8.99      11.05      12.63
O       8.98      23.87      15.95
O       0.86      -2.03      28.62
O       0.81       7.65      19.27
O       0.87      -5.28      15.58
O       6.60      19.32       0.07
O       6.90       8.20      14.56
O       6.61      -9.53      16.67
