111

C       1.27       0.03       1.28
C       2.69       0.03       1.26
C       2.68       0.11      20.50
C       1.26       0.14      20.48
C       0.61       0.22      19.22
C       1.33       0.26      18.00
C       2.74       0.24      18.06
C       3.41       0.16      19.29
C       3.42       0.01       2.46
C       2.76       0.01       3.70
C       1.35       0.00       3.78
C       0.63       0.01       2.56
C       9.64       1.33       0.06
C       8.22       1.28       0.05
C       8.27      20.43      21.71
C       9.69      20.44      21.72
C       7.58      19.20      21.65
C       8.28      17.99      21.59
C       9.69      17.97      21.61
C       0.37      19.20      21.66
C       0.26       2.60       0.13
C       9.52       3.79       0.19
C       8.11       3.71       0.19
C       7.47       2.47       0.12
C       0.46       0.07       0.00
C       7.47       0.00      21.76
C       3.46       0.06      21.76
C       0.39      16.78      21.52
C       0.68       0.01       5.00
C       0.16       5.01       0.30
C       0.69       0.44      16.79
C       0.06      14.37       0.08
C       1.29      13.73      21.54
C       1.33      12.32      21.51
C       0.18      11.54       0.00
C       8.97      12.18       0.35
C       8.94      13.59       0.37
C       0.27      10.14      21.63
C       0.78       9.33       0.91
C       0.64       7.93       0.82
C      10.01       7.33      21.48
C       9.51       8.13      20.42
C       9.67       9.54      20.51
C       1.06      21.61       7.42
C       2.16      21.45       8.29
C       1.95      21.47       9.69
C       0.66      21.66      10.23
C       9.56       0.16       9.36
C       9.78       0.12       7.96
C       0.55       0.03      11.65
C       1.03       1.15      12.39
C       1.10       1.06      13.80
C       0.73      21.55      14.48
C       0.25      20.43      13.75
C       0.15      20.53      12.34
H       7.54       4.56       0.26
H       6.44       2.45       0.13
H       6.56      19.18      21.64
H       7.73      17.12      21.53
H       1.39      19.20      21.67
H       1.28       2.65       0.13
H       9.60       0.25      19.18
H       3.30       0.30      17.20
H       4.43       0.15      19.29
H       9.62       0.01       2.59
H       4.45       0.02       2.45
H       3.34       0.00       4.55
H       6.82      21.61       0.88
H       6.83       0.03      20.87
H       4.08      20.83      21.73
H       4.12       0.93       0.02
H       1.00       5.07       0.83
H       1.33      16.79      21.18
H       9.70       0.09       5.02
H       0.01       1.16      16.69
H       8.05      14.06       0.59
H       0.94       7.36       1.61
H       9.28      10.13      19.77
H       2.21      11.85      21.27
H       7.01      11.96       0.89
H       7.81      10.53       0.69
H       8.53       8.18      18.63
H       8.74       6.65      19.24
H       8.99       0.25       7.32
H       1.50       1.85      14.32
H       9.86      19.71      11.80
H       2.75      21.35      10.31
H       7.54       0.48       9.20
H       8.09       0.41      10.77
H       9.59      18.50      13.85
H       9.96      19.17      15.33
N       1.35       9.95       2.05
N       7.83      11.50       0.65
N       8.87       7.61      19.34
N       2.45      14.50      21.28
N       9.84      15.67       0.05
N       9.67       6.05      21.51
N       1.46       2.31      11.70
N       8.29       0.36       9.82
N       9.92      19.27      14.36
N       3.46      21.27       7.75
N       1.32      21.61       6.11
N       1.08      21.44      15.76
O       2.54       9.59       2.22
O       3.36      14.25       0.34
O       0.70       9.68       3.10
O       2.89      14.28      20.12
O       2.68       2.53      11.90
O       4.24       0.53       8.11
O       0.80       3.32      12.04
O       3.96      20.17       8.10
