22

Cr      -4.33       9.07      18.68
Cr      -0.93       9.06      18.93
Cr      -2.64       6.10      18.80
C      -2.65      10.65      20.77
C      -0.66       6.72      20.94
C      -5.02       6.90      20.62
C      -2.39      10.66      16.87
C      -0.34       6.70      17.00
C      -4.71       6.93      16.65
O      -1.37       5.81      20.42
O      -4.08       6.21      20.11
O      -5.17       8.01      17.10
O      -3.47      10.18      17.33
O      -1.26      10.40      17.38
O      -0.26       7.84      17.56
O      -1.16       5.81      17.39
O      -3.89       6.21      17.30
O      -2.63       8.07      18.80
O      -5.37       8.01      20.13
O      -3.66      10.18      20.15
O      -1.47      10.40      20.42
O      -0.45       7.83      20.38
