852

H      45.45      22.31      23.83
H      47.70      22.75      23.25
H      46.16      23.81      27.71
H      48.42      24.25      27.12
H      51.12      23.73      27.05
H      52.26      21.80      27.85
H      51.22      19.74      24.32
H      50.09      21.66      23.53
H      51.77      23.72      22.83
H      51.94      24.36      20.54
H      48.11      26.12      20.75
H      47.94      25.48      23.02
H      48.12      26.33      25.37
H      52.18      25.25      25.02
H      52.81      27.50      25.45
H      48.74      28.55      25.82
H      52.20      18.53      26.18
H      43.95      22.83      27.10
H      49.65      25.04      18.42
H      52.16      29.81      26.06
H      45.45      42.64      26.66
H      47.70      41.92      26.58
H      46.17      45.27      23.44
H      48.43      44.53      23.35
H      51.13      44.72      23.84
H      52.27      46.38      25.10
H      51.21      44.37      28.66
H      50.08      42.72      27.39
H      51.77      41.09      25.96
H      51.95      38.78      26.56
H      48.13      38.07      24.91
H      47.95      40.35      24.33
H      48.12      41.97      22.42
H      52.18      42.20      23.53
H      52.81      41.45      21.37
H      48.74      41.25      20.28
H      52.19      46.58      28.77
H      43.95      45.22      24.59
H      49.67      36.60      27.01
H      52.16      40.82      19.07
H      45.45      34.94       7.66
H      47.70      35.23       8.33
H      46.17      30.84       6.98
H      48.43      31.13       7.66
H      51.13      31.45       7.26
H      52.27      31.72       5.19
H      51.21      35.80       5.15
H      50.08      35.53       7.21
H      51.77      35.11       9.34
H      51.95      36.78      11.03
H      48.14      35.71      12.49
H      47.96      34.06      10.81
H      48.12      31.60      10.34
H      52.18      32.45       9.59
H      52.81      30.95      11.32
H      48.74      30.10      12.04
H      52.19      34.79       3.18
H      43.96      31.86       6.46
H      49.71      38.27      12.69
H      52.16      29.27      13.02
H      17.28      11.94      33.60
H      19.54      11.51      34.18
H      18.01      10.51      29.70
H      20.27      10.07      30.29
H      22.99      10.56      30.37
H      24.13      12.48      29.57
H      23.03      14.57      33.07
H      21.90      12.65      33.86
H      23.61      10.62      34.58
H      23.79       9.99      36.87
H      20.00       8.14      36.67
H      19.82       8.78      34.40
H      19.97       7.97      32.02
H      24.02       9.04      32.41
H      24.65       6.79      31.98
H      20.58       5.75      31.57
H      24.04      15.76      31.22
H      15.80      11.46      30.32
H      21.60       9.29      39.00
H      24.00       4.48      31.36
H      17.29      -8.32      30.76
H      19.54      -7.60      30.85
H      18.01     -10.98      33.95
H      20.27     -10.25      34.04
H      22.99     -10.42      33.58
H      24.13     -12.08      32.31
H      23.04     -10.09      28.76
H      21.91      -8.44      30.02
H      23.61      -6.80      31.42
H      23.79      -4.50      30.82
H      20.00      -3.76      32.52
H      19.81      -6.05      33.10
H      19.97      -7.70      34.99
H      24.03      -7.90      33.88
H      24.65      -7.15      36.04
H      20.58      -6.98      37.14
H      24.03     -12.29      28.65
H      15.80     -10.92      32.82
H      21.59      -2.32      30.37
H      24.00      -6.53      38.35
H      17.29      -0.64      49.77
H      19.55      -0.93      49.10
H      18.01       3.46      50.42
H      20.27       3.18      49.74
H      22.96       2.85      50.16
H      24.11       2.58      52.22
H      23.06      -1.51      52.25
H      21.93      -1.23      50.19
H      23.61      -0.81      48.06
H      23.78      -2.48      46.36
H      19.95      -1.41      44.93
H      19.78       0.24      46.62
H      19.96       2.69      47.06
H      24.02       1.85      47.82
H      24.65       3.35      46.09
H      20.58       4.19      45.36
H      24.04      -0.50      54.22
H      15.80       2.45      50.96
H      21.49      -3.96      44.70
H      24.00       5.02      44.38
H       7.46     -10.14      33.42
H       5.17      -9.85      33.95
H       6.89      -8.01      29.82
H       4.60      -7.72      30.36
H       2.09      -8.66      30.30
H       0.86     -10.55      29.50
H       1.38     -12.44      33.23
H       2.60     -10.57      34.01
H       1.13      -8.27      34.53
H       0.98      -7.60      36.82
H       5.07      -6.57      36.77
H       5.21      -7.20      34.50
H       4.80      -5.91      32.43
H       0.77      -7.12      32.17
H       0.13      -4.88      31.74
H       4.17      -3.69      32.00
H       0.20     -13.59      31.50
H       9.13      -8.50      30.56
H       3.59      -7.10      38.99
H       0.75      -2.52      31.38
H       7.46      10.57      30.69
H       5.16       9.97      30.67
H       6.89      12.60      34.35
H       4.60      11.98      34.33
H       2.09      12.53      33.53
H       0.87      14.16      32.30
H       1.37      11.86      28.80
H       2.59      10.25      30.03
H       1.13       8.66      31.77
H       0.98       6.34      31.20
H       5.08       5.87      32.10
H       5.22       8.15      32.69
H       4.80       9.29      34.85
H       0.77      10.14      33.93
H       0.13       9.39      36.09
H       4.17       8.55      36.99
H       0.20      13.94      28.66
H       9.13      12.23      33.54
H       3.59       4.22      30.54
H       0.75       8.51      38.31
H       7.46       2.57      50.00
H       5.17       2.88      49.48
H       6.89      -1.62      49.92
H       4.61      -1.29      49.40
H       2.10      -0.87      50.27
H       0.87      -0.62      52.29
H       1.37       3.56      52.05
H       2.60       3.30      50.05
H       1.13       2.59      47.80
H       0.99       4.24      46.07
H       5.08       3.70      45.22
H       5.22       2.04      46.90
H       4.80      -0.40      46.80
H       0.77      -0.03      48.00
H       0.13      -1.52      46.27
H       4.17      -1.88      45.10
H       0.20       2.64      53.92
H       9.13      -0.73      50.00
H       3.60       5.87      44.57
H       0.75      -3.01      44.40
H      35.62      44.43      23.98
H      33.33      44.14      23.45
H      35.04      42.31      27.59
H      32.76      42.02      27.05
H      30.24      42.96      27.11
H      29.02      44.84      27.91
H      29.55      46.74      24.18
H      30.77      44.87      23.40
H      29.29      42.58      22.88
H      29.14      41.91      20.59
H      33.22      40.86      20.63
H      33.36      41.48      22.90
H      32.96      40.21      24.99
H      28.93      41.42      25.23
H      28.29      39.17      25.65
H      32.33      37.98      25.41
H      28.36      47.89      25.91
H      37.28      42.81      26.86
H      31.73      41.41      18.42
H      28.90      36.81      26.01
H      35.62      23.75      26.72
H      33.33      24.36      26.73
H      35.04      21.69      23.08
H      32.76      22.30      23.10
H      30.24      21.78      23.87
H      29.01      20.15      25.11
H      29.55      22.42      28.61
H      30.77      24.03      27.39
H      29.29      25.63      25.66
H      29.13      27.94      26.23
H      33.21      28.44      25.29
H      33.36      26.16      24.70
H      32.96      24.99      22.55
H      28.93      24.17      23.48
H      28.29      24.93      21.33
H      32.33      25.73      20.41
H      28.36      20.35      28.75
H      37.28      22.08      23.87
H      31.72      30.07      26.89
H      28.90      25.80      19.10
H      35.63      31.72       7.46
H      33.34      31.40       7.98
H      35.04      35.90       7.45
H      32.75      35.58       7.97
H      30.22      35.17       7.16
H      29.00      34.92       5.13
H      29.57      30.74       5.33
H      30.79      31.00       7.34
H      29.29      31.68       9.58
H      29.13      30.03      11.30
H      33.20      30.63      12.23
H      33.35      32.28      10.55
H      32.96      34.73      10.58
H      28.93      34.30       9.43
H      28.29      35.79      11.17
H      32.34      36.21      12.29
H      28.37      31.66       3.48
H      37.28      35.02       7.42
H      31.72      28.41      12.83
H      28.91      37.30      13.02
H      52.60      28.30      15.20
H      52.60      32.19      25.80
H      52.60      39.39      17.15
H      24.44       5.98      42.19
H      24.44       2.11      31.63
H      24.44      -5.13      40.28
H       0.31      -4.12      42.26
H       0.31      -0.11      31.50
H       0.31       7.21      40.35
H      28.47      38.40      15.16
H      28.46      34.41      25.89
H      28.46      27.11      17.08
H      39.53      22.96      27.57
H      39.53      45.56      24.24
H      39.53      31.38       6.33
H      11.38      11.34      29.85
H      11.38     -11.27      33.16
H      11.37       2.91      51.08
H      54.96      17.36      31.14
H      54.96     -13.15      27.31
H      54.96      -1.22      55.64
H      26.80      16.94      26.26
H      26.80      35.52       1.77
H      26.81     -17.17      30.11
C      50.84      28.26      25.70
C      51.81      27.26      25.49
C      51.44      25.92      25.25
C      50.08      25.50      25.23
C      49.12      26.52      25.46
C      49.48      27.86      25.70
C      49.69      24.13      24.67
C      49.79      24.44      23.17
C      48.78      25.20      22.51
C      48.88      25.59      21.17
C      50.03      25.28      20.42
C      51.08      24.58      21.05
C      50.96      24.19      22.40
C      50.55      22.95      25.15
C      48.29      23.67      25.09
C      47.40      23.00      24.20
C      46.06      22.73      24.54
C      45.56      23.07      25.82
C      46.48      23.58      26.77
C      47.81      23.84      26.41
C      51.17      22.92      26.43
C      51.85      21.77      26.91
C      51.90      20.57      26.16
C      51.25      20.59      24.90
C      50.58      21.73      24.42
C      44.21      22.92      26.14
C      51.22      29.60      25.82
C      50.09      25.64      19.09
C      52.48      19.38      26.62
C      50.84      41.29      20.59
C      51.81      41.61      21.56
C      51.44      42.07      22.84
C      50.08      42.27      23.21
C      49.12      41.95      22.21
C      49.48      41.49      20.93
C      49.69      42.47      24.68
C      49.80      41.01      25.16
C      48.79      40.06      24.82
C      48.90      38.70      25.16
C      50.05      38.21      25.81
C      51.09      39.11      26.11
C      50.97      40.48      25.77
C      50.55      43.48      25.46
C      48.29      43.06      24.87
C      47.40      42.61      25.89
C      46.06      43.04      25.95
C      45.56      43.99      25.02
C      46.48      44.56      24.11
C      47.82      44.12      24.06
C      51.18      44.60      24.85
C      51.85      45.59      25.60
C      51.89      45.54      27.02
C      51.24      44.44      27.63
C      50.57      43.46      26.88
C      44.21      44.34      24.98
C      51.22      40.73      19.36
C      50.11      36.88      26.17
C      52.48      46.53      27.81
C      50.84      30.35      11.85
C      51.82      31.03      11.09
C      51.44      31.91      10.05
C      50.09      32.13       9.69
C      49.12      31.42      10.47
C      49.49      30.55      11.51
C      49.69      33.31       8.79
C      49.80      34.45       9.81
C      48.80      34.64      10.81
C      48.91      35.60      11.82
C      50.06      36.41      11.91
C      51.10      36.22      10.97
C      50.97      35.25       9.96
C      50.55      33.48       7.53
C      48.29      33.18       8.19
C      47.40      34.29       8.06
C      46.06      34.12       7.66
C      45.56      32.85       7.31
C      46.48      31.78       7.26
C      47.82      31.95       7.67
C      51.18      32.39       6.86
C      51.85      32.55       5.63
C      51.89      33.79       4.96
C      51.24      34.88       5.60
C      50.57      34.72       6.83
C      44.21      32.64       7.02
C      51.22      29.57      12.95
C      50.12      37.39      12.88
C      52.48      33.99       3.70
C      22.68       6.03      31.71
C      23.66       7.04      31.93
C      23.28       8.38      32.17
C      21.93       8.80      32.18
C      20.96       7.77      31.94
C      21.33       6.44      31.70
C      21.53      10.17      32.74
C      21.65       9.86      34.25
C      20.66       9.07      34.90
C      20.77       8.68      36.24
C      21.91       9.02      36.99
C      22.94       9.75      36.36
C      22.82      10.14      35.01
C      22.39      11.35      32.25
C      20.13      10.63      32.34
C      19.24      11.27      33.23
C      17.90      11.54      32.89
C      17.40      11.22      31.61
C      18.32      10.73      30.65
C      19.66      10.47      31.00
C      23.03      11.37      30.99
C      23.70      12.52      30.50
C      23.73      13.73      31.25
C      23.07      13.72      32.50
C      22.40      12.57      32.97
C      16.05      11.37      31.28
C      23.06       4.70      31.58
C      21.98       8.67      38.32
C      24.32      14.92      30.78
C      22.68      -7.00      36.83
C      23.66      -7.32      35.85
C      23.29      -7.77      34.57
C      21.93      -7.98      34.20
C      20.96      -7.67      35.21
C      21.33      -7.21      36.48
C      21.54      -8.17      32.73
C      21.65      -6.72      32.25
C      20.65      -5.76      32.60
C      20.76      -4.40      32.27
C      21.91      -3.92      31.60
C      22.94      -4.83      31.29
C      22.82      -6.19      31.62
C      22.39      -9.18      31.95
C      20.13      -8.75      32.54
C      19.24      -8.30      31.53
C      17.90      -8.73      31.47
C      17.40      -9.68      32.38
C      18.32     -10.26      33.29
C      19.66      -9.83      33.34
C      23.03     -10.30      32.56
C      23.70     -11.29      31.81
C      23.74     -11.24      30.40
C      23.07     -10.16      29.78
C      22.41      -9.17      30.53
C      16.06     -10.04      32.42
C      23.06      -6.44      38.05
C      21.98      -2.59      31.24
C      24.32     -12.24      29.60
C      22.68       3.95      45.55
C      23.65       3.27      46.32
C      23.28       2.39      47.36
C      21.92       2.16      47.71
C      20.96       2.87      46.94
C      21.32       3.75      45.90
C      21.53       0.99      48.62
C      21.64      -0.16      47.60
C      20.63      -0.34      46.61
C      20.73      -1.31      45.60
C      21.88      -2.11      45.49
C      22.92      -1.92      46.42
C      22.81      -0.95      47.44
C      22.39       0.82      49.88
C      20.13       1.12      49.23
C      19.24       0.01      49.36
C      17.91       0.18      49.77
C      17.40       1.45      50.11
C      18.32       2.53      50.15
C      19.66       2.35      49.74
C      23.02       1.91      50.55
C      23.69       1.75      51.78
C      23.74       0.50      52.44
C      23.09      -0.58      51.80
C      22.42      -0.42      50.57
C      16.06       1.66      50.40
C      23.06       4.72      44.46
C      21.93      -3.09      44.52
C      24.32       0.31      53.71
C       2.09      -4.05      31.80
C       1.13      -5.09      31.84
C       1.51      -6.43      32.07
C       2.87      -6.80      32.25
C       3.82      -5.74      32.22
C       3.44      -4.40      31.99
C       3.28      -8.19      32.76
C       3.21      -7.92      34.28
C       4.32      -7.36      34.98
C       4.24      -6.96      36.32
C       3.02      -7.05      37.02
C       1.89      -7.55      36.34
C       1.99      -7.96      35.00
C       2.40      -9.35      32.28
C       4.66      -8.64      32.28
C       5.51      -9.47      33.06
C       6.87      -9.64      32.75
C       7.43      -9.06      31.59
C       6.54      -8.42      30.69
C       5.18      -8.24      31.02
C       1.91      -9.43      30.95
C       1.19     -10.55      30.47
C       0.96     -11.68      31.29
C       1.49     -11.64      32.60
C       2.21     -10.52      33.07
C       8.80      -9.02      31.34
C       1.68      -2.72      31.65
C       2.98      -6.65      38.34
C       0.27     -12.83      30.86
C       2.08       8.91      36.78
C       1.13       9.41      35.86
C       1.51       9.87      34.58
C       2.87       9.89      34.17
C       3.81       9.38      35.10
C       3.44       8.92      36.38
C       3.28      10.15      32.71
C       3.22       8.70      32.19
C       4.32       7.82      32.32
C       4.25       6.46      31.99
C       3.03       5.89      31.57
C       1.89       6.73      31.48
C       1.99       8.10      31.80
C       2.40      11.15      31.94
C       4.66      10.80      32.57
C       5.50      10.54      31.45
C       6.87      10.90      31.45
C       7.43      11.61      32.54
C       6.54      12.06      33.55
C       5.18      11.68      33.54
C       1.92      12.35      32.54
C       1.20      13.32      31.81
C       0.96      13.17      30.42
C       1.48      12.01      29.81
C       2.20      11.04      30.54
C       8.80      11.80      32.70
C       1.68       8.37      38.01
C       2.99       4.55      31.26
C       0.27      14.12      29.64
C       2.09      -1.88      45.51
C       1.13      -1.33      46.40
C       1.52      -0.46      47.44
C       2.87      -0.11      47.67
C       3.82      -0.66      46.76
C       3.44      -1.54      45.72
C       3.28       1.03      48.62
C       3.22       2.20      47.63
C       4.33       2.53      46.80
C       4.25       3.50      45.78
C       3.03       4.15      45.50
C       1.89       3.80      46.27
C       1.99       2.84      47.30
C       2.40       1.19      49.87
C       4.66       0.83      49.25
C       5.51       1.92      49.59
C       6.87       1.74      49.89
C       7.43       0.44      49.97
C       6.54      -0.65      49.85
C       5.19      -0.46      49.53
C       1.92       0.07      50.61
C       1.20       0.22      51.82
C       0.96       1.50      52.38
C       1.49       2.61      51.68
C       2.20       2.46      50.47
C       8.81       0.21      50.06
C       1.68      -2.67      44.43
C       2.99       5.09      44.49
C       0.27       1.70      53.59
C      30.24      38.34      25.60
C      29.29      39.38      25.57
C      29.67      40.72      25.33
C      31.03      41.10      25.16
C      31.97      40.03      25.19
C      31.60      38.70      25.42
C      31.43      42.49      24.64
C      31.37      42.21      23.13
C      32.47      41.64      22.43
C      32.39      41.25      21.09
C      31.17      41.35      20.39
C      30.04      41.85      21.07
C      30.14      42.26      22.41
C      30.56      43.65      25.13
C      32.82      42.93      25.13
C      33.67      43.76      24.34
C      35.03      43.94      24.65
C      35.59      43.36      25.82
C      34.70      42.72      26.71
C      33.34      42.54      26.39
C      30.07      43.73      26.46
C      29.35      44.85      26.94
C      29.12      45.98      26.12
C      29.65      45.93      24.81
C      30.37      44.81      24.34
C      36.96      43.32      26.07
C      29.84      37.01      25.75
C      31.13      40.95      19.06
C      28.43      47.13      26.55
C      30.24      25.39      20.63
C      29.29      24.90      21.55
C      29.67      24.43      22.83
C      31.03      24.40      23.24
C      31.97      24.90      22.30
C      31.60      25.36      21.03
C      31.43      24.15      24.70
C      31.37      25.59      25.22
C      32.47      26.49      25.07
C      32.38      27.85      25.41
C      31.17      28.40      25.84
C      30.04      27.56      25.94
C      30.14      26.19      25.62
C      30.56      23.15      25.47
C      32.82      23.51      24.85
C      33.67      23.78      25.96
C      35.03      23.42      25.95
C      35.59      22.70      24.87
C      34.70      22.24      23.87
C      33.34      22.61      23.88
C      30.07      21.95      24.87
C      29.35      20.98      25.60
C      29.12      21.12      26.99
C      29.66      22.28      27.60
C      30.37      23.25      26.87
C      36.96      22.50      24.71
C      29.84      25.93      19.40
C      31.12      29.75      26.16
C      28.43      20.18      27.77
C      30.24      36.17      11.90
C      29.29      35.61      11.02
C      29.67      34.74       9.98
C      31.03      34.41       9.74
C      31.98      34.98      10.63
C      31.60      35.85      11.67
C      31.43      33.27       8.79
C      31.36      32.10       9.78
C      32.46      31.79      10.64
C      32.38      30.82      11.65
C      31.16      30.15      11.91
C      30.04      30.48      11.12
C      30.14      31.44      10.09
C      30.56      33.11       7.54
C      32.82      33.46       8.16
C      33.67      32.36       7.86
C      35.03      32.55       7.55
C      35.59      33.85       7.45
C      34.69      34.94       7.54
C      33.33      34.75       7.85
C      30.06      34.22       6.81
C      29.34      34.08       5.60
C      29.12      32.80       5.03
C      29.67      31.69       5.72
C      30.38      31.84       6.92
C      36.96      34.08       7.36
C      29.84      36.97      12.98
C      31.12      29.20      12.91
C      28.43      32.60       3.82
C      50.46      27.34      17.53
C      51.69      28.16      15.65
C      50.50      28.63      15.05
C      49.27      27.82      16.94
C      48.10      27.74      17.51
C      50.47      34.68      25.46
C      51.69      32.64      25.69
C      50.50      31.89      25.59
C      49.27      33.93      25.34
C      48.11      34.47      25.13
C      50.46      37.87      15.14
C      51.69      39.09      16.80
C      50.50      39.39      17.49
C      49.26      38.16      15.84
C      48.10      37.72      15.48
C      22.30       6.95      39.87
C      23.53       6.12      41.75
C      22.33       5.67      42.36
C      21.10       6.49      40.47
C      19.93       6.59      39.91
C      22.30      -0.39      31.95
C      23.53       1.66      31.73
C      22.34       2.41      31.81
C      21.10       0.36      32.05
C      19.93      -0.17      32.25
C      22.31      -3.58      42.27
C      23.53      -4.81      40.62
C      22.34      -5.09      39.91
C      21.11      -3.85      41.56
C      19.94      -3.40      41.92
C       2.43      -4.97      39.87
C       1.21      -4.19      41.78
C       2.38      -3.63      42.33
C       3.60      -4.39      40.41
C       4.75      -4.40      39.80
C       2.43       2.38      31.94
C       1.21       0.34      31.66
C       2.38      -0.41      31.87
C       3.61       1.63      32.17
C       4.76       2.15      32.47
C       2.43       5.58      42.28
C       1.21       6.84      40.65
C       2.38       7.03      39.89
C       3.61       5.75      41.50
C       4.76       5.23      41.81
C      30.59      39.27      17.54
C      29.37      38.48      15.63
C      30.54      37.93      15.08
C      31.77      38.69      17.00
C      32.92      38.71      17.60
C      30.58      31.91      25.47
C      29.36      33.95      25.73
C      30.54      34.71      25.53
C      31.77      32.67      25.25
C      32.92      32.14      24.97
C      30.58      28.72      15.13
C      29.36      27.47      16.77
C      30.54      27.27      17.52
C      31.77      28.54      15.89
C      32.92      29.04      15.58
C      41.96      22.94      25.32
C      39.96      22.94      26.64
C      39.17      22.88      25.47
C      41.17      22.92      24.15
C      41.66      22.94      22.94
C      41.96      43.62      25.38
C      39.96      44.77      24.73
C      39.17      43.79      25.35
C      41.17      42.62      25.99
C      41.65      41.56      26.57
C      41.96      33.34       7.44
C      39.96      32.20       6.78
C      39.17      33.23       7.31
C      41.17      34.36       8.01
C      41.65      35.40       8.63
C      13.80      11.35      32.10
C      11.80      11.36      30.78
C      11.01      11.41      31.94
C      13.01      11.38      33.27
C      13.49      11.35      34.47
C      13.80      -9.32      32.03
C      11.80     -10.47      32.68
C      11.01      -9.49      32.06
C      13.01      -8.32      31.43
C      13.50      -7.26      30.85
C      13.81       0.96      49.97
C      11.80       2.10      50.64
C      11.01       1.06      50.10
C      13.01      -0.07      49.41
C      13.50      -1.10      48.79
C      53.98      18.23      28.10
C      54.85      17.27      30.13
C      55.37      16.17      29.43
C      54.52      17.13      27.39
C      54.49      17.00      26.10
C      55.37     -14.04      29.19
C      53.98      33.28       1.97
C      54.85      32.00       0.12
C      55.37       0.86      55.47
C      54.52      34.45       1.37
C      54.48      35.63       1.90
C      25.82      16.06      29.31
C      26.69      17.02      27.28
C      27.22      18.13      27.98
C      26.37      17.16      30.02
C      26.33      17.29      31.31
C      25.83     -14.09      29.35
C      26.32     -12.98      27.27
C      25.82       1.02      55.44
C      26.69      34.60       1.34
C      27.22      33.44       1.94
C      26.37      32.16       0.08
C      26.33      -1.33      55.50
C      53.98      48.39      28.07
C      54.85     -13.98      27.88
C      54.52     -16.29      29.38
C      54.48     -17.34      30.14
C      26.70     -16.33      29.53
C      27.22     -16.28      28.22
C      26.37     -14.03      28.03
N      51.63      27.55      16.86
N      49.34      28.44      15.74
N      47.07      27.67      18.02
N      50.51      26.81      18.75
N      50.40      29.29      13.90
N      51.63      33.99      25.61
N      49.34      32.58      25.41
N      47.08      34.95      24.94
N      50.52      36.00      25.32
N      50.40      30.56      25.59
N      51.63      38.34      15.67
N      49.34      38.90      16.98
N      47.07      37.33      15.15
N      50.51      37.09      14.07
N      50.40      40.05      18.64
N      23.46       6.72      40.54
N      21.17       5.87      41.68
N      18.90       6.67      39.41
N      22.34       7.48      38.66
N      22.23       5.01      43.51
N      23.47       0.30      31.81
N      21.18       1.72      31.98
N      18.91      -0.65      32.43
N      22.35      -1.71      32.10
N      22.24       3.73      31.81
N      23.47      -4.06      41.75
N      21.18      -4.59      40.42
N      18.92      -3.00      42.23
N      22.36      -2.80      43.34
N      22.24      -5.76      38.77
N       1.27      -4.83      40.58
N       3.52      -3.75      41.60
N       5.77      -4.40      39.27
N       2.37      -5.57      38.68
N       2.48      -2.95      43.46
N       1.28       1.70      31.72
N       3.53       0.27      32.13
N       5.78       2.62      32.73
N       2.38       3.71      32.02
N       2.48      -1.74      31.90
N       1.28       6.11      41.80
N       3.52       6.46      40.35
N       5.77       4.77      42.09
N       2.38       4.84      43.39
N       2.48       7.67      38.73
N      29.43      39.11      16.83
N      31.69      38.05      15.80
N      33.94      38.73      18.13
N      30.53      39.86      18.73
N      30.64      37.25      13.95
N      29.43      32.60      25.68
N      31.69      34.02      25.29
N      33.94      31.67      24.72
N      30.53      30.58      25.39
N      30.64      36.03      25.51
N      29.43      28.20      15.62
N      31.69      27.82      17.05
N      33.94      29.49      15.29
N      30.53      29.46      14.02
N      30.64      26.63      18.68
N      41.31      22.96      26.52
N      39.82      22.89      24.28
N      42.09      22.96      21.88
N      43.29      22.99      25.25
N      37.84      22.92      25.56
N      41.31      44.65      24.77
N      39.81      42.75      25.95
N      42.08      40.63      27.08
N      43.29      43.53      25.37
N      37.84      43.84      25.28
N      41.31      32.29       6.86
N      39.81      34.26       7.92
N      42.08      36.30       9.19
N      43.29      33.38       7.53
N      37.84      33.14       7.30
N      13.15      11.34      30.90
N      11.65      11.40      33.14
N      13.92      11.33      35.54
N      15.13      11.30      32.17
N       9.68      11.38      31.86
N      13.15     -10.35      32.64
N      11.66      -8.44      31.47
N      13.92      -6.32      30.34
N      15.13      -9.23      32.04
N       9.68      -9.54      32.13
N      13.15       2.00      50.56
N      11.66       0.03      49.50
N      13.93      -2.01      48.23
N      15.13       0.92      49.89
N       9.68       1.15      50.11
N      54.19      18.25      29.45
N      55.19      16.16      28.08
N      54.45      16.88      24.96
N      53.34      19.30      27.58
N      56.04      15.20      30.09
N      53.34      47.40      27.41
N      56.04     -12.99      29.70
N      54.19      32.11       1.31
N      55.19      34.33       0.18
N      54.45      36.68       2.36
N      53.34      33.20       3.15
N      56.04       0.77      54.31
N      26.03      16.05      27.96
N      27.03      18.13      29.33
N      26.29      17.41      32.45
N      25.18      15.00      29.83
N      27.89      19.09      27.32
N      26.29     -12.05      26.60
N      25.19     -13.11      30.01
N      27.89      47.28      27.71
N      26.03      34.49       0.15
N      27.03      32.27       1.27
N      26.30      -2.38      55.04
N      25.18       1.10      54.26
N      27.88      33.52       3.10
N      54.19     -15.07      27.38
N      55.19     -15.21      29.87
N      54.45      46.34      30.81
N      26.04     -15.25      30.03
N      27.03     -15.11      27.54
