219

C      12.49       0.08       0.58
C      -5.41      10.37       0.05
C      -5.45      10.48      36.66
C      12.37       0.16      36.28
C      12.09       0.36      34.91
C       0.40       0.06      33.92
C      -4.70      10.46      34.36
C      -4.47      10.15      35.71
C      -4.51       9.70       0.89
C      -4.71       9.74       2.28
C      -5.74      10.54       2.87
C      12.35       0.20       1.98
C      11.37       2.05      37.60
C      10.03       2.30      37.90
C       9.33       1.10      37.88
C      10.22       0.06      37.59
C       7.96       0.84       0.11
C       1.16      10.49       0.01
C       2.04       9.41      37.69
C       3.42       9.70      37.50
C      -0.38       3.12      37.52
C      -0.80       4.45      37.80
C      -2.17       4.66       0.15
C       9.58       3.60       0.18
C      11.61       0.59      37.49
C      -6.29      10.94      13.24
C       5.24      10.32      12.71
C       5.36      10.30      11.33
C       0.17       0.04      10.95
C       0.49       0.19       9.59
C       6.07      10.46       8.59
C       4.96       9.68       9.03
C       4.58       9.63      10.38
C       4.20       9.89      13.55
C       4.34      10.04      14.94
C       5.54      10.53      15.53
C       0.22       0.04      14.64
C      -4.03      10.93      12.27
C       3.19       1.00      12.58
C       2.50       2.20      12.56
C       1.16       1.95      12.26
C       2.96       3.51      12.77
C       2.05       4.58      12.68
C       0.68       4.36      12.36
C       0.24       3.02      12.17
C      -3.56       9.60      12.20
C      -2.19       9.30      12.47
C      -1.33      10.38      12.81
C       4.55       0.74      12.85
C       0.92       0.49      12.16
C       6.18      10.81      25.91
C      -0.12       1.13      25.38
C      -0.20       1.05      24.00
C       6.17      10.67      23.62
C       6.13      10.32      22.25
C      12.23       0.35      21.26
C      -0.55       1.70      21.70
C      -0.40       2.06      23.05
C       0.02       2.25      26.22
C       0.08       2.05      27.61
C      -0.10       0.77      28.20
C       6.14      10.63      27.31
C       5.03       8.86      24.94
C       5.48       7.57      25.24
C       6.87       7.57      25.22
C       7.33       8.86      24.93
C       7.78       6.51      25.43
C      -3.51       6.77      25.34
C      -3.01       8.06      25.02
C      -3.95       9.11      24.83
C       3.64       9.11      24.86
C       2.70       8.08      25.13
C       3.20       6.80      25.47
C       4.58       6.53      25.51
C       6.18       9.79      24.82
C      -0.10       0.60      29.64
C      -0.63       1.56      30.55
C      -0.43       1.47      31.96
C       0.18       0.30      32.51
C      -5.73      10.26      31.60
C      -5.82      10.43      30.21
C      -1.49       3.62      32.20
C      -1.82       3.64      30.84
C      -2.52       4.68      30.24
C      -5.88      10.62       4.31
C      -4.78      10.60       5.22
C      -4.96      10.47       6.63
C       6.38      10.53       7.18
C       5.31      10.67       6.27
C       5.49      10.66       4.88
C      -2.57      10.32       6.87
C      -2.39      10.60       5.51
C      -1.14      10.68       4.90
C       5.69      10.62      16.97
C       5.12       9.68      17.88
C       5.10       9.90      19.30
C      12.14       0.04      19.85
C       0.13       0.91      18.94
C       0.03       0.75      17.55
C       3.77       7.90      19.54
C       3.92       7.61      18.17
C       3.36       6.48      17.57
C       1.50       8.08      37.60
C       1.99       6.99       0.35
C       1.29       5.74       0.43
C       0.07       5.58      37.69
C      -0.35       6.65      36.86
C       0.33       7.87      36.83
C       2.99       4.92       1.93
C       3.69       6.14       1.82
C       4.91       6.36       2.45
C      -0.20       5.49      12.27
C      -1.40       5.61      13.02
C      -2.12       6.84      13.09
C      -1.65       7.98      12.36
C      -0.51       7.81      11.54
C       0.20       6.61      11.50
C       8.98       5.78      14.59
C       9.68       4.56      14.48
C       9.26       3.39      15.10
C      -1.59       8.26      24.92
C      -0.89       9.24      25.67
C       0.54       9.25      25.75
C       1.29       8.27      25.02
C       0.58       7.37      24.20
C      -0.83       7.35      24.16
C       6.73       0.17      27.23
C       5.32       0.18      27.13
C       4.52       1.13      27.74
H      -2.51       5.60       0.36
H       8.60       3.78       0.42
H       7.32       1.60       0.33
H       0.17      10.32       0.19
H       4.08       8.95      37.27
H       0.60       2.93      37.27
H      11.18       0.75      34.66
H      -3.95      10.27      33.69
H      -3.58       9.74      36.00
H      11.58       0.77       2.34
H      -3.75       9.14       0.50
H      -4.09       9.17       2.86
H      -0.34      10.20      13.03
H       5.19       1.50      13.09
H       3.94       3.69      13.00
H       2.40       5.52      12.86
H      -0.73       2.83      11.94
H      -4.21       8.85      11.94
H       1.28       0.78       9.33
H       4.42       9.13       8.36
H       3.77       9.06      10.67
H       1.09       0.42      15.00
H       3.34       9.50      13.16
H       3.54       9.79      15.52
H       2.56       6.03      25.69
H       4.92       5.59      25.75
H       7.44       5.57      25.66
H      -2.86       5.99      25.52
H      -3.63      10.06      24.60
H       3.32      10.05      24.60
H       6.24       9.34      21.99
H      -0.76       2.45      21.03
H      -0.49       3.04      23.33
H       6.04       9.67      27.66
H       0.12       3.19      25.82
H       0.27       2.87      28.19
H      -5.40       9.70      29.63
H      -5.31       9.39      31.94
H      -0.55       2.62      33.64
H       8.59       4.70      31.31
H       4.66      10.66       4.30
H       4.34      10.74       6.61
H      -3.90      10.00       8.31
H       5.99       1.05       5.98
H       0.45       1.47      16.96
H       0.68       1.71      19.28
H       4.16       9.22      20.98
H       4.14       5.13      18.64
H      -0.05       8.63      36.25
H      -1.21       6.57      36.31
H       1.34       3.94       1.39
H       5.92       4.96       1.66
H       1.05       6.57      10.93
H      -0.15       8.60      10.98
H      -3.71       7.70      14.05
H       7.55       3.21      14.32
H      -1.29       6.63      23.59
H       1.07       6.66      23.65
H       2.07      10.20      26.70
H       5.23       2.70      26.94
N      -0.81       2.56      32.71
N      -1.34       2.62      30.08
N      -3.83      10.25       7.38
N      -3.51      10.69       4.75
N       4.34       9.02      20.04
N       4.56       8.53      17.42
N       1.81       4.78       1.26
N       3.15       7.11       1.06
N      -3.22       6.87      13.92
N      -1.86       4.55      13.72
N       1.11      10.19      26.57
N      -1.58      10.18      26.37
O      -1.83       4.65      33.02
O      -2.24       4.97      29.08
O       8.99       4.96      30.56
O      -1.51      10.10       7.69
O      -1.02      10.28       3.76
O       6.02       0.57       5.24
O       3.05       7.09      20.36
O       2.95       6.59      16.43
O       3.70       5.34      17.90
O       3.45       3.91       2.70
O       5.14       7.48       2.88
O       5.92       5.73       2.10
O       7.87       5.89      15.35
O      10.11       2.63      15.53
O       8.21       2.82      14.76
O       7.38       1.08      28.00
O       3.44       0.78      28.18
O       4.56       2.32      27.39
