16

N       1.67       9.62       0.48
N       2.08       6.75       0.02
N       0.73       4.82       1.42
C       1.94       8.80      -0.52
H       0.68       9.97       0.66
H       2.32       9.65       1.26
C       3.01       7.78      -0.39
C       2.31       5.38      -0.42
H       1.23       8.72      -1.34
H       3.48       7.56      -1.36
H       3.78       8.04       0.35
H       3.23       4.99       0.04
H       2.41       5.32      -1.51
H       1.38       3.45      -0.09
H       0.26       4.74      -0.61
C       1.13       4.51       0.01
