16

N       5.26       5.54       6.97
H       5.17       2.44       2.81
H       6.84       3.15       2.85
H       5.70       1.23       4.80
H       7.92       1.71       5.90
H       8.28       3.00       4.69
H       7.86       4.35       7.33
H       7.14       2.84       7.96
H       6.10       5.02       8.87
H       4.95       3.84       8.16
C       6.43       1.92       4.37
C       7.49       2.48       5.26
C       6.94       3.72       7.33
C       5.79       4.52       7.94
N       6.18       2.45       3.20
N       6.59       3.35       5.98
