14

C      -2.31       2.98       4.53
C      -1.13       2.13       4.02
H      -1.06       5.57       7.73
H      -2.78       5.44       5.89
H      -3.66       4.19       6.76
H      -3.20       2.33       4.66
H      -2.56       3.79       3.83
H      -1.47       1.51       3.18
H      -0.33       2.79       3.69
N      -1.50       3.63       8.49
N      -1.96       3.48       5.82
N      -0.59       1.27       5.11
C      -1.84       4.81       7.76
C      -2.63       4.54       6.51
