14

H       1.96       8.08       6.71
H       3.10       8.67       8.99
H       4.20       8.47       7.59
C       2.20       9.09       7.06
N       2.90      12.21       4.51
N       2.51       9.97       5.98
N       3.96      10.46       8.19
H       1.67       9.04       4.27
C       2.55      11.00       3.86
C       1.80      10.03       4.73
H       3.30      10.61       3.17
C       3.40       9.09       8.02
H       0.77      10.39       4.94
H       1.31       9.50       7.58
