16

C       7.05       4.79       0.54
C       5.94       5.77       0.43
C       6.63       8.18       0.47
C       7.81       9.05       0.06
H       8.33       3.69      -0.71
H       6.67       3.99      -1.26
H       7.76       4.88       1.36
H       5.47       5.98       1.41
H       5.17       5.50      -0.31
H       5.71       8.57      -0.01
H       6.51       8.24       1.56
H       7.57      10.12       0.17
H       8.68       8.81       0.67
N       6.85       6.81       0.03
N       8.20       8.77      -1.36
N       7.33       4.01      -0.49
