16

H      -1.05      10.87       4.35
H      -1.74      12.16       5.37
H      -2.83      11.87       3.06
H      -3.95      11.85       4.46
C      -2.43       9.58       8.00
C      -1.36       9.99       7.04
C      -1.94      11.18       4.92
C      -3.13      11.32       3.96
H      -3.12      10.34       8.37
H      -3.74       8.01       8.39
H      -2.12       7.61       7.76
N      -2.74       8.32       8.17
N      -2.27      10.19       5.94
N      -3.67       9.97       3.58
H      -0.89      10.93       7.36
H      -0.60       9.21       6.89
