22

Co       1.76       2.43       3.50
Co      -1.75      -1.69       3.50
H      -0.99      -2.60       6.41
H       2.52       3.34       0.59
H       4.50       7.46       0.59
H       0.99       1.51       6.41
C       0.15       4.53       5.10
C      -0.29       5.05       6.43
C       3.66       4.44       1.91
C       3.22       3.92       0.57
C       3.36       0.33       1.91
C       3.80      -0.19       0.57
C      -0.15       0.41       5.10
C       0.29       0.93       6.43
O       1.08       3.68       5.05
O      -0.46       4.96       4.06
O       4.59       5.28       1.95
O       3.05       4.01       2.94
O       2.43       1.17       1.95
O       3.97      -0.10       2.94
O      -1.08      -0.43       5.05
O       0.46       0.84       4.06
