13

O       6.57       3.03       1.20
Mn       4.72       2.60      -0.02
C       2.12       3.91      -0.67
C       7.32       3.91       0.67
C       6.85       4.51      -0.67
C       5.73       0.02      -1.45
C       3.73       0.01       1.45
O       3.69       4.08       1.14
C       2.59       4.51       0.67
O       5.75       4.09      -1.14
O       4.34       1.14       1.34
O       2.87       3.04      -1.20
O       5.13       1.16      -1.40
