11

Zn       8.45      20.30       5.68
C       7.55      19.90       2.84
C       6.26      18.75       4.37
C       8.84      17.94       7.16
O       9.50      21.64       4.67
N       7.32      21.03       7.22
C       7.56      20.70       8.51
C       6.27      21.85       6.98
C       8.86      22.66       4.19
N       7.32      19.57       4.13
O       9.48      18.96       6.68
