16

C       3.72       2.06       3.88
C       2.69       1.00       1.95
C       3.82       2.14       5.24
C       2.72       1.88       6.06
O       1.80       2.69       8.07
O       1.69       0.53       1.32
C       2.83       2.27       7.46
H       0.62       1.34       6.08
C       1.50       1.51       5.47
C       1.42       1.32       4.08
C       2.56       1.57       3.29
O       3.88       0.75       1.59
O       4.00       2.49       7.89
H       4.78       2.42       5.66
H       0.51       0.94       3.64
H       4.61       2.26       3.30
