16

C       3.00       1.15      16.88
O       4.09       2.53      10.94
H       5.13       2.07      12.99
C       2.96       2.26      11.40
H       0.83       1.17      15.26
H       0.83       1.46      12.86
O       1.89       2.73      10.89
H       5.11       1.88      15.37
C       4.18       1.87      13.47
C       4.17       1.79      14.84
C       2.97       1.55      15.50
C       1.77       1.39      14.77
C       1.77       1.52      13.40
C       2.97       1.78      12.75
O       1.92       0.70      17.36
O       4.13       0.92      17.41
