16

C       6.17       5.41      13.27
C       5.64       6.49      12.54
O       6.98       6.21      17.32
O       5.09       5.11      10.76
O       4.16       7.12      10.88
C       6.12       6.92      16.69
H       5.00       8.56      12.62
H       5.13       8.71      14.98
H       6.71       4.68      15.21
O       5.70       8.01      17.12
H       6.39       4.46      12.79
C       5.38       7.70      13.16
C       5.01       6.26      11.26
C       5.45       7.78      14.52
C       5.90       6.69      15.28
C       6.32       5.51      14.65
