404

Zn       6.70      17.03       9.18
Zn       7.45      10.11       9.18
Zn      13.78      10.11      22.21
Zn       0.37      17.03      22.21
Zn       7.07      13.57       9.22
Zn       0.00      13.57      22.24
Zn       0.37       7.98       3.85
Zn      13.78       1.07       3.85
Zn       7.45       1.07      16.88
Zn       6.70       7.98      16.88
Zn      14.15       4.52       3.81
Zn       7.07       4.52      16.84
H       7.62       1.05      11.08
H       7.80       3.56      11.15
H       6.22       3.62       7.12
H       6.09       1.12       7.24
H       5.49       9.30      12.97
H       4.21       9.34      15.10
H       3.54      13.57      14.60
H       4.85      13.51      12.49
H       2.19       9.51      16.06
H       3.69      13.49      16.81
H       2.27      16.84       8.16
H      14.15      15.81       8.07
H       1.67      12.08       9.42
H       3.93      13.12       9.51
H       1.01       9.57      18.26
H       2.48      13.53      18.98
H       6.52       7.99      11.08
H       6.35       5.49      11.15
H       7.93       5.43       7.12
H       8.06       7.93       7.24
H       8.66      17.84      12.97
H       9.94      17.80      15.10
H      10.61      13.57      14.60
H       9.30      13.62      12.49
H      11.96      17.62      16.06
H      10.46      13.65      16.81
H      11.88      10.30       8.16
H       0.00      11.33       8.07
H      12.48      15.06       9.42
H      10.22      14.01       9.51
H      13.14      17.56      18.26
H      11.67      13.61      18.98
H       0.55       7.99      24.11
H       0.72       5.49      24.18
H      13.30       5.43      20.15
H      13.17       7.93      20.27
H      12.57      17.84      26.00
H      11.29      17.80       2.07
H      10.61      13.57       1.58
H      11.93      13.62      25.51
H       9.26      17.62       3.04
H      10.77      13.65       3.78
H       9.34      10.30      21.19
H       7.07      11.33      21.10
H       8.75      15.06      22.44
H      11.01      14.01      22.54
H       8.08      17.56       5.23
H       9.56      13.61       5.95
H      13.60       1.05      24.11
H      13.43       3.56      24.18
H       0.85       3.62      20.15
H       0.98       1.12      20.27
H       1.58       9.30      26.00
H       2.86       9.34       2.07
H       3.54      13.57       1.58
H       2.22      13.51      25.51
H       4.89       9.51       3.04
H       3.38      13.49       3.78
H       4.81      16.84      21.19
H       7.08      15.81      21.10
H       5.40      12.08      22.44
H       3.14      13.12      22.54
H       6.07       9.57       5.23
H       4.59      13.53       5.95
H      13.60      10.10       1.95
H      13.43      12.60       1.88
H       0.85      12.66       5.91
H       0.98      10.16       5.79
H       1.58       0.26       0.06
H       2.86       0.29      23.98
H       3.54       4.52      24.48
H       2.22       4.47       0.54
H       4.89       0.47      23.02
H       3.38       4.44      22.28
H       4.81       7.79       4.87
H       7.08       6.76       4.96
H       5.40       3.03       3.61
H       3.14       4.08       3.52
H       6.07       0.53      20.83
H       4.59       4.49      20.11
H       0.55      17.04       1.95
H       0.72      14.53       1.88
H      13.30      14.48       5.91
H      13.17      16.98       5.79
H      12.57       8.79       0.06
H      11.29       8.75      23.98
H      10.61       4.52      24.48
H      11.93       4.58       0.54
H       9.26       8.58      23.02
H      10.77       4.60      22.28
H       9.34       1.25       4.87
H       7.07       2.28       4.96
H       8.75       6.02       3.61
H      11.01       4.97       3.52
H       8.08       8.52      20.83
H       9.56       4.56      20.11
H       6.52      17.04      14.98
H       6.35      14.53      14.91
H       7.93      14.48      18.93
H       8.06      16.98      18.82
H       8.66       8.79      13.08
H       9.94       8.75      10.95
H      10.61       4.52      11.45
H       9.30       4.58      13.57
H      11.96       8.58       9.99
H      10.46       4.60       9.25
H      11.88       1.25      17.89
H       0.00       2.28      17.99
H      12.48       6.02      16.64
H      10.22       4.97      16.55
H      13.14       8.52       7.80
H      11.67       4.56       7.08
H       7.62      10.10      14.98
H       7.80      12.60      14.91
H       6.22      12.66      18.93
H       6.09      10.16      18.82
H       5.49       0.26      13.08
H       4.21       0.29      10.95
H       3.54       4.52      11.45
H       4.85       4.47      13.57
H       2.19       0.47       9.99
H       3.69       4.44       9.25
H       2.27       7.79      17.89
H      14.15       6.76      17.99
H       1.67       3.03      16.64
H       3.93       4.08      16.55
H       1.01       0.53       7.80
H       2.48       4.49       7.08
C       7.33       1.67      10.23
C       7.42       3.05      10.26
C       7.03       3.79       9.13
C       6.56       3.09       8.01
C       6.48       1.70       8.07
C       5.25      11.41      12.60
C       5.05      10.23      13.33
C       4.32      10.25      14.52
C       3.78      11.46      15.01
C       3.98      12.63      14.26
C       4.71      12.61      13.08
C       3.04      11.49      16.28
C       2.27      10.39      16.70
C       3.09      12.63      17.11
C       4.54      15.73       9.00
C       3.22      15.05       8.86
C       2.11      15.80       8.44
C       0.85      15.22       8.39
C       0.67      13.87       8.74
C       1.80      13.12       9.12
C       3.06      13.70       9.18
C       1.02      11.56      20.09
C       1.69      11.55      18.76
C       1.61      10.42      17.92
C       2.43      12.66      18.33
C       6.01      11.43      11.31
C       6.82       7.37      10.23
C       6.73       5.99      10.26
C       7.12       5.26       9.13
C       7.59       5.96       8.01
C       7.67       7.34       8.07
C       8.90      15.73      12.60
C       9.09      16.90      13.33
C       9.82      16.88      14.52
C      10.37      15.68      15.01
C      10.17      14.50      14.26
C       9.44      14.53      13.08
C      11.11      15.64      16.28
C      11.88      16.74      16.70
C      11.06      14.51      17.11
C       9.61      11.41       9.00
C      10.93      12.08       8.86
C      12.04      11.34       8.44
C      13.29      11.92       8.39
C      13.48      13.27       8.74
C      12.35      14.02       9.12
C      11.08      13.44       9.18
C      13.13      15.57      20.09
C      12.46      15.59      18.76
C      12.54      16.72      17.92
C      11.72      14.48      18.33
C       8.14      15.70      11.31
C       0.25       7.37      23.26
C       0.34       5.99      23.29
C      14.11       5.26      22.16
C      13.63       5.96      21.04
C      13.55       7.34      21.10
C      12.33      15.73      25.63
C      12.13      16.90       0.30
C      11.40      16.88       1.49
C      10.85      15.68       1.98
C      11.06      14.50       1.23
C      11.78      14.53       0.05
C      10.11      15.64       3.25
C       9.34      16.74       3.67
C      10.17      14.51       4.08
C      11.61      11.41      22.03
C      10.30      12.08      21.88
C       9.19      11.34      21.47
C       7.93      11.92      21.42
C       7.75      13.27      21.77
C       8.88      14.02      22.15
C      10.14      13.44      22.21
C       8.10      15.57       7.07
C       8.77      15.59       5.73
C       8.68      16.72       4.90
C       9.50      14.48       5.30
C      13.09      15.70      24.34
C      13.90       1.67      23.26
C      13.81       3.05      23.29
C       0.04       3.79      22.16
C       0.52       3.09      21.04
C       0.60       1.70      21.10
C       1.82      11.41      25.63
C       2.02      10.23       0.30
C       2.75      10.25       1.49
C       3.29      11.46       1.98
C       3.09      12.63       1.23
C       2.37      12.61       0.05
C       4.04      11.49       3.25
C       4.81      10.39       3.67
C       3.98      12.63       4.08
C       2.54      15.73      22.03
C       3.85      15.05      21.88
C       4.96      15.80      21.47
C       6.22      15.22      21.42
C       6.40      13.87      21.77
C       5.27      13.12      22.15
C       4.01      13.70      22.21
C       6.05      11.56       7.07
C       5.38      11.55       5.73
C       5.47      10.42       4.90
C       4.65      12.66       5.30
C       1.06      11.43      24.34
C      13.90      10.72       2.80
C      13.81      12.10       2.77
C       0.04      12.83       3.90
C       0.52      12.13       5.02
C       0.60      10.75       4.96
C       1.82       2.37       0.43
C       2.02       1.19      25.75
C       2.75       1.21      24.57
C       3.29       2.41      24.08
C       3.09       3.59      24.82
C       2.37       3.57      26.01
C       4.04       2.45      22.81
C       4.81       1.35      22.38
C       3.98       3.58      21.98
C       2.54       6.68       4.02
C       3.85       6.01       4.17
C       4.96       6.75       4.59
C       6.22       6.17       4.64
C       6.40       4.82       4.29
C       5.27       4.07       3.91
C       4.01       4.65       3.84
C       6.05       2.52      18.99
C       5.38       2.50      20.33
C       5.47       1.38      21.16
C       4.65       3.61      20.76
C       1.06       2.39       1.72
C       0.25      16.42       2.80
C       0.34      15.04       2.77
C      14.11      14.30       3.90
C      13.63      15.01       5.02
C      13.55      16.39       4.96
C      12.33       6.68       0.43
C      12.13       7.86      25.75
C      11.40       7.84      24.57
C      10.85       6.64      24.08
C      11.06       5.46      24.82
C      11.78       5.48      26.01
C      10.11       6.60      22.81
C       9.34       7.70      22.38
C      10.17       5.46      21.98
C      11.61       2.36       4.02
C      10.30       3.04       4.17
C       9.19       2.29       4.59
C       7.93       2.87       4.64
C       7.75       4.22       4.29
C       8.88       4.97       3.91
C      10.14       4.39       3.84
C       8.10       6.53      18.99
C       8.77       6.55      20.33
C       8.68       7.67      21.16
C       9.50       5.43      20.76
C      13.09       6.66       1.72
C       6.82      16.42      15.82
C       6.73      15.04      15.80
C       7.12      14.30      16.93
C       7.59      15.01      18.04
C       7.67      16.39      17.98
C       8.90       6.68      13.45
C       9.09       7.86      12.72
C       9.82       7.84      11.54
C      10.37       6.64      11.05
C      10.17       5.46      11.79
C       9.44       5.48      12.98
C      11.11       6.60       9.78
C      11.88       7.70       9.35
C      11.06       5.46       8.95
C       9.61       2.36      17.05
C      10.93       3.04      17.20
C      12.04       2.29      17.62
C      13.29       2.87      17.67
C      13.48       4.22      17.31
C      12.35       4.97      16.94
C      11.08       4.39      16.87
C      13.13       6.53       5.96
C      12.46       6.55       7.30
C      12.54       7.67       8.13
C      11.72       5.43       7.73
C       8.14       6.66      14.75
C       7.33      10.72      15.82
C       7.42      12.10      15.80
C       7.03      12.83      16.93
C       6.56      12.13      18.04
C       6.48      10.75      17.98
C       5.25       2.37      13.45
C       5.05       1.19      12.72
C       4.32       1.21      11.54
C       3.78       2.41      11.05
C       3.98       3.59      11.79
C       4.71       3.57      12.98
C       3.04       2.45       9.78
C       2.27       1.35       9.35
C       3.09       3.58       8.95
C       4.54       6.68      17.05
C       3.22       6.01      17.20
C       2.11       6.75      17.62
C       0.85       6.17      17.67
C       0.67       4.82      17.31
C       1.80       4.07      16.94
C       3.06       4.65      16.87
C       1.02       2.52       5.96
C       1.69       2.50       7.30
C       1.61       1.38       8.13
C       2.43       3.61       7.73
C       6.01       2.39      14.75
N       6.86       1.01       9.16
N       7.29       8.04       9.16
N      13.94       8.04      22.19
N       0.21       1.01      22.19
N       0.21      10.05       3.87
N      13.94      17.09       3.87
N       7.29      17.09      16.90
N       6.86      10.05      16.90
O       4.63      16.99       8.80
O       0.48      10.46      20.47
O       6.55      10.32      10.93
O       6.04      12.53      10.69
O       5.57      15.07       9.38
O       1.07      12.64      20.75
O       9.52      10.15       8.80
O      13.67      16.67      20.47
O       7.60      16.81      10.93
O       8.11      14.61      10.69
O       8.58      12.06       9.38
O      13.08      14.49      20.75
O      11.70      10.15      21.83
O       7.55      16.67       7.44
O      13.62      16.81      23.96
O      13.12      14.61      23.72
O      12.64      12.06      22.41
O       8.15      14.49       7.72
O       2.45      16.99      21.83
O       6.60      10.46       7.44
O       0.53      10.32      23.96
O       1.03      12.53      23.72
O       1.51      15.07      22.41
O       6.00      12.64       7.72
O       2.45       7.94       4.23
O       6.60       1.42      18.62
O       0.53       1.28       2.10
O       1.03       3.49       2.34
O       1.51       6.03       3.65
O       6.00       3.60      18.33
O      11.70       1.10       4.23
O       7.55       7.63      18.62
O      13.62       7.77       2.10
O      13.12       5.56       2.34
O      12.64       3.02       3.65
O       8.15       5.45      18.33
O       9.52       1.10      17.25
O      13.67       7.63       5.59
O       7.60       7.77      15.13
O       8.11       5.56      15.36
O       8.58       3.02      16.68
O      13.08       5.45       5.31
O       4.63       7.94      17.25
O       0.48       1.42       5.59
O       6.55       1.28      15.13
O       6.04       3.49      15.36
O       5.57       6.03      16.68
O       1.07       3.60       5.31
