15

H      -1.04       1.40       5.27
C      -2.16       5.81       4.24
C       0.65       5.85       2.92
H      -2.53       3.37       5.36
C       0.07       4.66       3.60
C       0.83       3.50       3.57
O       0.09       7.00       3.02
N       0.45       2.36       4.18
C      -1.18       4.65       4.25
O      -2.28       6.42       5.37
H       1.79       3.48       3.06
O      -2.81       6.03       3.21
O       1.70       5.71       2.19
C      -0.75       2.33       4.81
C      -1.57       3.45       4.85
