15

O       6.08       1.58       6.55
H       3.34       4.79       3.77
O       6.45       2.96       8.26
C       3.53       2.53       5.33
N       5.97       6.09       5.41
C       6.24       5.07       6.24
C       4.15       4.83       4.49
O       3.23       2.08       4.15
H       7.10       5.18       6.91
C       6.00       2.74       7.08
C       4.93       5.98       4.56
C       5.50       3.88       6.24
C       4.43       3.75       5.33
O       3.11       2.10       6.42
H       4.74       6.83       3.91
