15

O       8.81       0.14       6.36
C      10.51      -3.41       4.55
H      11.46      -3.47       4.03
C       8.87      -2.21       5.82
C       8.12      -3.38       5.84
N       8.49      -4.51       5.23
O      11.23      -0.47       4.01
C       8.28      -1.02       6.49
H       7.17      -3.40       6.37
O      11.72      -0.79       6.20
C       9.69      -4.53       4.59
O       7.24      -1.17       7.22
C      11.09      -1.05       5.16
H       9.98      -5.46       4.13
C      10.12      -2.21       5.16
