15

C       1.44       4.32      14.75
H       2.64       0.01      13.35
H       1.24       2.05      13.20
C       3.89       4.12      16.49
O       4.27       3.95      17.70
C       2.82       0.86      14.00
C       3.40       2.97      15.67
N       3.85       0.74      14.87
O       4.04       5.26      15.91
H       4.97       1.65      16.37
O       1.11       4.74      13.57
C       4.12       1.77      15.70
O       1.06       4.80      15.84
C       2.05       2.01      13.93
C       2.33       3.10      14.76
