18

N      10.51       1.00       4.47
H      10.72       0.21       3.85
H      10.53       0.80       5.46
H      11.74       4.21       1.41
H      10.44       3.09       6.05
H      11.45       6.04       3.11
O      12.02       1.96       0.63
O      10.81       0.47       1.83
O      10.72       5.39       6.96
O      10.70       6.94       5.37
C      11.19       2.63       2.74
C      10.81       2.28       4.07
C      10.71       3.32       5.02
C      10.93       4.65       4.68
C      11.29       5.00       3.36
C      11.44       3.99       2.42
C      11.35       1.62       1.67
C      10.77       5.71       5.72
