20

C       7.13       7.82       4.39
C       6.76       6.96       5.54
C       6.69       9.76       3.00
C       8.63       8.38       2.58
C       6.34       8.93       4.06
C       8.25       7.54       3.63
C       9.87       8.07       1.81
C       5.84      10.97       2.68
C       7.84       9.49       2.27
H       5.57       9.11       4.55
H       8.76       6.79       3.82
H       8.09      10.05       1.57
N       6.88       5.50       7.09
N       5.69       6.03       7.10
N       7.59       6.07       6.10
N       5.58       6.96       6.14
O       4.81      11.17       3.39
O      10.37       8.97       1.06
O       6.21      11.70       1.73
O      10.42       6.95       1.93
