20

C       5.79       6.16       1.37
C       6.55       6.70       0.22
C       3.80       6.18       2.76
C       5.56       4.57       3.18
C       4.54       6.69       1.70
C       6.30       5.12       2.13
C       6.13       3.42       3.96
C       2.44       6.75       3.08
C       4.31       5.11       3.49
H       4.19       7.40       1.21
H       7.15       4.78       1.94
H       3.81       4.75       4.19
N       8.01       6.89      -1.33
N       7.23       7.95      -1.34
N       7.60       6.08      -0.34
N       6.30       7.85      -0.38
O       2.02       7.71       2.37
O       5.36       2.74       4.70
O       1.80       6.23       4.03
O       7.34       3.13       3.83
