216

Cd       7.39       9.26      17.15
Cd       9.53      14.16       0.45
Cd       9.12      13.72       6.60
Cd       7.02       8.84      11.00
Cd       3.61       6.04       3.94
Cd       1.47       1.15      20.65
Cd       1.88       1.59      14.50
Cd       3.98       6.46      10.10
H       9.51      11.02       4.91
H       2.70      14.29       5.33
H       7.82      10.34      20.09
H       6.64      10.66       1.17
H       3.34       8.35      20.56
H       4.73       8.11      18.49
H       3.15       9.25       1.69
H       4.63       9.42       2.63
H       3.33      11.71       1.00
H       4.79      11.85       1.95
H       4.21      13.49       3.51
H       1.57      10.10       3.03
H       3.65      12.54      16.06
H      10.53      12.64      15.82
H      10.37      13.52      17.34
H       2.34      10.76      17.04
H       2.30      10.63      19.46
H       4.21      12.25      19.80
H       4.30      11.32      18.30
H       4.96      13.51      17.73
H       7.01      11.96      15.45
H       4.50       8.70      15.88
H       8.68      12.63       9.52
H       9.90      12.34      11.70
H       3.84      14.61      10.01
H       2.46      14.86       7.93
H       4.08      13.73      12.22
H       2.60      13.58      13.16
H       3.87      11.27      11.55
H       2.41      11.15      12.50
H       3.00       9.51      14.06
H       5.64      12.89      13.58
H       3.56      10.44       5.51
H       6.00      10.29       5.29
H       6.14       9.43       6.82
H       4.87      12.19       6.49
H       4.92      12.33       8.91
H       3.00      10.71       9.26
H       2.91      11.66       7.77
H       2.24       9.46       7.19
H       1.49       4.28      16.19
H       8.30       1.02      15.76
H       3.19       4.97       1.01
H       4.37       4.64      19.93
H       7.66       6.95       0.53
H       6.28       7.19       2.61
H       7.86       6.05      19.41
H       6.38       5.88      18.47
H       7.67       3.60      20.09
H       6.21       3.45      19.15
H       6.80       1.82      17.59
H       9.43       5.21      18.06
H       7.35       2.77       5.04
H       0.47       2.66       5.27
H       0.63       1.78       3.76
H       8.67       4.55       4.06
H       8.71       4.67       1.64
H       6.79       3.05       1.30
H       6.70       3.99       2.79
H       6.05       1.79       3.36
H       3.99       3.34       5.65
H       6.50       6.60       5.22
H       2.32       2.67      11.58
H       1.11       2.97       9.40
H       7.16       0.70      11.08
H       8.54       0.45      13.17
H       6.92       1.57       8.88
H       8.40       1.72       7.94
H       7.13       4.03       9.54
H       8.60       4.15       8.59
H       8.01       5.80       7.04
H       5.36       2.41       7.52
H       7.44       4.87      15.58
H       5.00       5.01      15.80
H       4.87       5.88      14.28
H       6.13       3.11      14.61
H       6.08       2.97      12.18
H       8.01       4.59      11.84
H       8.09       3.65      13.33
H       8.76       5.84      13.91
C      10.41      11.53       4.56
C       2.51      13.35       4.82
C       6.83       9.91      20.25
C       6.18      10.11       0.35
C       4.89       9.57       0.49
C       4.33       8.81      20.51
C       5.08       8.68      19.34
C       4.09       9.81       1.74
C       3.83      11.32       1.90
C       3.01      11.73       3.09
C       3.33      12.90       3.78
C       1.87      11.03       3.51
C       3.19      14.56      15.81
C       3.10      13.29      16.65
C       1.67      12.78      16.81
C       1.66      11.45      17.57
C       9.64      10.72      17.56
C       2.29      11.62      18.97
C       3.74      12.11      18.82
C       3.89      13.40      17.97
C       1.47      12.49      19.92
C       3.55      14.62      18.81
C       6.11      11.46      15.11
C       4.70       9.64      15.36
C       9.67      13.05       9.69
C      10.36      12.89      10.88
C       2.33      13.43      11.03
C       2.86      14.15       9.95
C       2.10      14.29       8.79
C       3.13      13.19      12.28
C       3.37      11.67      12.45
C       4.20      11.26      13.63
C       3.88      10.09      14.33
C       5.34      11.96      14.06
C       4.00       8.41       5.27
C       4.10       9.68       6.11
C       5.54      10.17       6.28
C       5.55      11.50       7.03
C       6.88      12.24       7.01
C       4.92      11.34       8.43
C       3.47      10.86       8.28
C       3.31       9.57       7.43
C       5.74      10.47       9.37
C       3.66       8.34       8.26
C       0.59       3.78      16.54
C       8.49       1.96      16.28
C       4.18       5.39       0.85
C       4.83       5.20      20.75
C       6.11       5.74      20.60
C       6.67       6.49       0.59
C       5.92       6.62       1.75
C       6.91       5.50      19.35
C       7.17       3.98      19.19
C       8.00       3.57      18.01
C       7.68       2.40      17.31
C       9.14       4.27      17.59
C       7.82       0.74       5.28
C       7.90       2.01       4.44
C       9.34       2.52       4.28
C       9.34       3.85       3.52
C       1.36       4.58       3.54
C       8.72       3.68       2.13
C       7.26       3.20       2.28
C       7.11       1.90       3.12
C       9.53       2.81       1.18
C       7.45       0.68       2.29
C       4.89       3.84       5.99
C       6.31       5.66       5.74
C       1.33       2.25      11.41
C       0.64       2.41      10.21
C       8.67       1.87      10.07
C       8.15       1.16      11.15
C       8.90       1.02      12.31
C       7.87       2.12       8.82
C       7.63       3.63       8.65
C       6.80       4.04       7.46
C       7.13       5.22       6.77
C       5.66       3.35       7.04
C       7.00       6.90      15.83
C       6.90       5.63      14.99
C       5.46       5.13      14.82
C       5.46       3.80      14.07
C       4.13       3.06      14.08
C       6.08       3.96      12.67
C       7.54       4.45      12.82
C       7.69       5.74      13.67
C       5.26       4.84      11.73
C       7.35       6.96      12.83
N      10.72      12.67       5.21
N       6.30       9.23      19.21
N       5.80      10.31      15.75
N      10.20      13.74       8.65
N       0.28       2.63      15.89
N       4.70       6.07       1.89
N       5.20       4.99       5.35
N       0.81       1.57      12.45
O       9.46       9.74      18.36
O       8.79      11.06      16.67
O       9.52      12.65      19.77
O       2.09      13.05      20.90
O       2.45      15.24      18.70
O       4.44      14.98      19.69
O       2.25      14.84      15.00
O       4.24      15.28      15.94
O       7.06      13.20       7.84
O       7.72      11.94       6.10
O       7.00      10.28       9.18
O       5.15       9.94      10.38
O       4.78       7.76       8.18
O       2.75       7.95       9.11
O       4.96       8.11       4.48
O       2.93       7.71       5.36
O       1.54       5.56       2.74
O       2.22       4.24       4.42
O       1.48       2.66       1.32
O       8.91       2.25       0.20
O       8.55       0.07       2.39
O       6.56       0.33       1.41
O       8.75       0.46       6.10
O       6.77       0.02       5.16
O       3.94       2.10      13.26
O       3.28       3.36      15.00
O       4.01       5.03      11.92
O       5.85       5.36      10.72
O       6.23       7.55      12.92
O       8.26       7.35      11.99
O       6.05       7.20      16.62
O       8.07       7.59      15.74
