48

H       3.47       5.13       0.18
H       5.94       3.32      -0.18
H       5.37       2.05       2.09
H       4.05       6.40      -2.09
H       5.16       7.78       3.79
H       4.21       6.98       5.06
H       6.01       7.02       5.17
H       4.24       0.66      -3.79
H       3.39       1.43      -5.17
H       5.20       1.47      -5.05
H       5.16       6.65      -5.32
H       3.36       6.61      -5.50
H       4.12       7.51      -4.14
H       4.25       1.79       5.32
H       5.30       0.94       4.13
H       6.05       1.84       5.49
H       3.00       1.15      -1.91
H       4.77       1.13      -1.53
H       3.60       1.97      -0.46
H       6.41       7.30       1.91
H       5.81       6.48       0.46
H       4.63       7.32       1.53
C       5.00       4.48       5.99
C       4.41       3.97      -5.99
C       5.16       4.39       4.55
C       4.25       4.06      -4.55
C       5.23       5.57       3.77
C       4.18       2.88      -3.77
C       5.37       5.46       2.37
C       4.04       2.99      -2.37
C       5.36       4.18       1.77
C       4.05       4.27      -1.77
C       5.35       3.03       2.56
C       4.06       5.42      -2.56
C       5.26       3.12       3.95
C       4.16       5.33      -3.95
C       5.23       3.98       0.33
C       4.18       4.47      -0.33
C       5.15       6.91       4.47
C       4.25       1.53      -4.47
C       4.20       6.60      -4.77
C       5.21       1.85       4.77
C       3.85       1.74      -1.52
C       5.56       6.71       1.52
O       6.06       4.39       6.73
O       3.35       4.06      -6.73
O       3.81       4.63       6.48
O       5.60       3.82      -6.48
