10

H       2.35       0.72       8.36
H       5.35       0.06       8.70
O       4.17      -2.03       8.63
O       3.52       2.80       8.43
O       1.92      -1.79       8.38
O       5.77       2.56       8.68
C       3.11      -1.30       8.49
C       4.59       2.08       8.57
C       3.25       0.12       8.47
C       4.45       0.66       8.59
