13

C       9.16       8.35       5.64
C       9.85       9.75       9.09
C       9.86       4.67       6.90
C      13.51       5.51       7.41
Zn      11.13       7.35       7.74
C      11.21       8.87       5.12
C      14.20       7.54       7.57
N      10.48       8.24       6.07
N      10.55       8.60       9.25
N      10.10       5.64       7.88
N      13.07       6.80       7.52
C      10.95       8.63      10.54
C       9.47       5.19       8.98
