13

C       9.47      10.38       0.00
N      10.48       9.38       4.11
N      10.55      12.31       2.82
N      10.10       9.64       0.94
N      13.07       9.91       2.13
C      11.21       8.87       5.12
C      14.20      10.32       2.74
Zn      11.13      10.38       2.50
C       9.16       9.06       4.41
C      10.95      13.44       2.20
C       9.85      12.75       3.90
C       9.86       8.32       0.59
C      13.51       9.17       1.06
