13

C       9.47      10.38       0.00
C       7.73       8.87      -5.12
C       4.74      10.32      -2.74
C       7.99      13.44      -2.20
C       9.78       9.06      -4.41
Zn       7.81      10.38      -2.50
C       9.09      12.74      -3.90
C       9.08       8.32      -0.59
C       5.43       9.17      -1.06
N       8.46       9.37      -4.11
N       8.39      12.30      -2.81
N       8.84       9.64      -0.94
N       5.87       9.91      -2.13
