13

Zn       7.81      -6.08      15.54
C       7.73      -4.56      18.16
C       4.74      -5.90      15.71
C       9.78      -5.08      17.64
C       9.09      -3.69      14.20
C       9.08      -8.76      16.37
C       7.99      -4.81      12.74
C       5.43      -7.93      15.87
N       8.46      -5.19      17.21
N       8.39      -4.84      14.03
N       8.84      -7.80      15.40
N       5.87      -6.63      15.76
C       9.47      -8.25      14.29
