13

C      18.63      -4.37      18.87
Zn      20.60      -3.05      20.78
C      20.68      -4.56      18.16
C      19.30      -0.69      19.38
C      19.33      -5.11      22.69
C      23.68      -3.10      20.54
C      22.98      -4.26      22.22
N      19.95      -4.06      19.17
N      20.03      -1.13      20.46
N      19.58      -3.78      22.34
N      22.55      -3.52      21.15
C      20.44       0.01      21.06
C      18.94      -3.05      23.28
