13

Zn      11.13      16.50       2.50
C      11.21      18.01       5.12
N      10.48      17.50       4.11
N      10.55      14.57       2.81
N      10.10      17.23       0.94
N      13.07      16.97       2.13
C      14.20      16.55       2.74
C       9.16      17.82       4.41
C      10.95      13.44       2.20
C       9.85      14.14       3.90
C       9.86      18.56       0.59
C      13.51      17.70       1.06
C       9.47      16.50      -0.00
