13

N      10.48      12.31      13.11
N      10.55       9.73      11.21
N      10.10       9.44      14.46
N      13.07      10.33      13.63
C       9.16      12.73      13.23
C       9.85      10.45      10.29
C       9.86       9.80      15.78
C      11.21      13.44      13.04
C      13.51       9.78      14.81
C      14.20      10.65      12.97
Zn      11.13      10.42      13.04
C      10.95       8.63      10.54
C       9.47       8.26      14.30
