13

C      18.94       3.07      23.28
C      23.68       3.12      20.54
C      18.63       4.39      18.87
C      20.68       4.58      18.16
C      19.30       0.70      19.38
C      19.33       5.13      22.69
C      22.98       4.28      22.22
Zn      20.60       3.07      20.78
N      19.95       4.07      19.17
N      20.03       1.14      20.45
N      19.57       3.80      22.34
N      22.55       3.54      21.15
C      20.44       0.01      21.06
