13

Zn      11.13      16.47      13.04
C      11.21      13.44      13.04
C      14.20      16.23      12.97
N      10.48      14.57      13.11
N      10.55      17.16      11.21
N      10.10      17.45      14.46
N      13.07      16.56      13.63
C      10.95      18.26      10.54
C       9.16      14.15      13.23
C       9.47      18.63      14.29
C       9.85      16.43      10.29
C       9.86      17.09      15.78
C      13.51      17.11      14.81
