13

C      18.94       3.07      23.28
N      17.93       4.07      27.39
N      17.86       1.14      26.11
N      18.31       3.80      24.22
N      15.34       3.54      25.41
C      19.26       4.39      27.69
C      17.20       4.58      28.40
C      14.20       3.12      26.02
C      18.58       0.71      27.18
C      18.55       5.13      23.87
C      14.90       4.28      24.35
C      17.44       0.01      25.50
Zn      17.28       3.07      25.78
