13

N      17.93      18.64       6.07
N      17.86      18.28       9.25
N      18.31      21.24       7.89
N      15.34      20.08       7.51
Zn      17.28      19.52       7.74
C      19.26      18.53       5.64
C      17.20      18.01       5.12
C      18.58      17.14       9.09
C      18.55      22.21       6.91
C      14.90      21.37       7.41
C      14.20      19.35       7.58
C      17.44      18.24      10.53
C      18.94      21.69       8.99
