544

Zn       2.99       7.30       3.02
Zn       2.92      24.24       7.31
Zn       3.01      19.95      24.24
Zn       3.03       3.02      19.95
Zn      16.47       7.31      24.23
Zn      16.45       3.01       7.30
Zn      16.38      19.95       3.01
Zn      16.39      24.23      19.95
Zn      16.42      19.95      24.24
Zn      16.48       3.02      19.95
Zn      16.43       7.31       3.02
Zn      16.36      24.24       7.30
Zn       2.94      19.95       3.02
Zn       2.94      24.23      19.96
Zn       3.03       7.30      24.24
Zn       3.02       3.02       7.30
Zn      12.69      20.93      16.65
Zn      12.74      10.60      20.94
Zn      12.74       6.33      10.61
Zn      12.69      16.65       6.33
Zn       6.65      20.93      10.61
Zn       6.69      16.65      20.93
Zn       6.72       6.33      16.66
Zn       6.69      10.61       6.33
Zn       6.71       6.33      10.62
Zn       6.66      16.65       6.33
Zn       6.66      20.93      16.65
Zn       6.72      10.61      20.93
Zn      12.75       6.33      16.66
Zn      12.72      10.61       6.33
Zn      12.68      20.92      10.62
Zn      12.71      16.65      20.94
H       4.01      10.20       1.85
H       4.85       8.17       5.44
H       1.81       5.26       5.26
H       5.72       5.74       3.76
H       4.66       5.13       1.39
H       1.37       9.18       5.05
H       2.08       8.11      27.26
H      19.43       6.57       2.05
H       3.95      25.40      10.21
H       4.77      21.80       8.19
H       1.71      21.99       5.26
H       5.62      23.49       5.74
H       4.65      25.87       5.13
H       1.30      23.00       9.76
H       2.09       0.01       8.08
H      -0.09      24.83       6.23
H       4.04      17.05      25.42
H       4.81      19.03      21.78
H       1.79      21.94      21.98
H       5.71      21.61      23.52
H       4.69      22.12      25.88
H       1.38      18.09      22.22
H       2.03      19.16      27.26
H      -0.02      20.71      25.21
H       4.07       1.83      17.04
H       4.88       5.43      19.07
H       1.85       5.33      21.96
H       5.70       3.65      21.61
H       3.65       1.40      22.63
H       1.41       4.38      17.53
H       2.66      27.25      18.76
H      19.48       2.49      21.02
H      15.44      10.21      25.41
H      14.61       8.19      21.80
H      17.67       5.35      21.91
H      13.84       5.56      23.66
H      15.91       4.63      25.87
H      18.10       9.19      22.21
H      16.73       8.52      27.26
H      19.47       6.56      25.20
H      15.43       1.86      10.20
H      14.61       5.46       8.18
H      17.65       5.30       5.28
H      13.76       3.71       5.67
H      14.72       1.39       5.13
H      18.07       4.26       9.75
H      17.29      27.25       8.07
H       0.00       2.44       6.21
H      15.35      17.04       1.84
H      14.54      19.06       5.44
H      17.58      21.95       5.33
H      13.73      21.60       3.65
H      15.75      22.63       1.39
H      18.00      17.50       4.32
H      16.66      18.75      27.26
H      -0.08      21.01       2.45
H      15.35      25.42      17.05
H      14.52      21.82      19.07
H      17.58      21.91      21.90
H      13.74      23.62      21.70
H      15.78      25.85      22.64
H      18.01      22.15      18.10
H      16.64      27.25      18.76
H      -0.07      25.19      20.67
H      15.41      17.03      25.41
H      14.57      19.06      21.82
H      13.77      21.67      23.67
H      15.81      22.63      25.87
H      18.06      18.08      22.22
H      15.46       1.86      17.03
H      14.57       5.42      19.11
H      13.85       3.58      21.71
H      15.88       1.38      22.64
H      18.09       4.38      17.53
H      15.39      10.21       1.84
H      14.57       8.19       5.44
H      13.76       5.65       3.69
H      15.87       4.63       1.39
H      18.05       9.19       5.04
H      15.32      25.43      10.20
H      14.56      21.79       8.22
H      13.68      23.52       5.66
H      14.59      25.86       5.15
H      17.98      22.99       9.76
H       3.99      17.06       1.85
H       4.80      19.08       5.45
H       5.63      21.53       3.77
H       4.63      22.12       1.39
H       1.32      17.50       4.33
H       3.95      25.39      17.03
H       4.86      21.84      19.11
H       5.64      23.61      21.59
H       3.52      25.86      22.64
H       1.33      22.16      18.11
H       4.07      10.20      25.42
H       4.84       8.21      21.79
H       5.74       5.64      23.55
H       4.72       5.13      25.88
H       1.42       9.18      22.22
H       4.06       1.83      10.20
H       4.81       5.48       8.23
H       5.74       3.80       5.74
H       4.77       1.39       5.14
H       1.39       4.26       9.75
H      13.70      23.85      15.48
H      11.52      18.98      19.01
H      15.33      19.20      17.22
H      13.35      18.24      15.03
H      11.07      23.36      17.95
H      12.46      22.11      13.64
H       9.68      19.85      16.09
H      13.76      11.77      23.85
H      11.57       8.33      18.93
H      15.44       9.96      19.29
H      13.30      12.23      18.28
H      11.12       8.53      22.79
H      12.46      13.62      22.16
H       9.73      11.56      20.21
H      13.78       3.43      11.78
H      11.54       8.32       8.34
H      15.43       7.99       9.92
H      14.41       8.49      12.25
H      11.12       4.45       8.59
H      11.78       5.50      13.64
H       9.72       7.07      11.58
H      13.70      15.47       3.41
H      11.49      18.97       8.27
H      15.33      17.24       8.06
H      13.31      15.02       9.00
H      11.07      18.66       4.44
H      12.49      13.63       5.12
H       9.69      15.67       7.06
H       5.61      23.83      11.78
H       7.85      18.88       8.38
H       3.93      19.36       9.85
H       4.92      18.78      12.25
H       8.28      23.36       9.31
H       7.60      21.71      13.63
H       9.67      19.85      11.18
H       5.68      15.47      23.85
H       7.87      18.94      18.93
H       4.02      17.28      19.28
H       6.14      15.02      18.25
H       8.30      18.72      22.79
H       7.01      13.62      22.12
H       9.70      15.69      20.23
H       5.72       3.40      15.47
H       7.90       8.28      18.97
H       4.06       8.05      17.25
H       6.14       9.01      15.03
H       8.35       4.44      18.68
H       6.99       5.13      13.64
H       9.73       7.08      15.71
H       5.65      11.79       3.44
H       7.90       8.33       8.34
H       4.01       9.91       7.98
H       4.98      12.24       8.50
H       8.31       9.30       3.89
H       7.65      13.62       5.55
H       9.71      11.16       7.41
H       5.72       3.40      11.78
H       4.03       7.98       9.97
H       6.15       9.01      12.25
H       8.33       4.44       8.59
H       5.64      15.48       3.43
H       3.94      17.40       7.88
H       4.97      15.02       8.49
H       8.28      18.67       4.45
H       5.61      23.82      15.47
H       3.98      19.29      17.36
H       4.92      18.78      15.02
H       8.29      23.36      17.96
H       5.71      11.78      23.85
H       4.07      10.03      19.19
H       6.15      12.24      18.24
H       8.33       8.53      22.79
H      13.79       3.43      15.48
H      15.47       7.96      17.36
H      14.42       8.48      15.02
H      11.13       4.45      18.68
H      13.73      11.78       3.40
H      15.39       9.98       7.98
H      13.33      12.23       9.00
H      11.10       9.31       3.89
H      13.67      23.86      11.78
H      15.31      19.19      10.05
H      13.33      18.23      12.25
H      11.06      23.36       9.32
H      13.75      15.47      23.85
H      15.35      17.23      19.19
H      13.28      15.02      18.27
H      11.09      18.72      22.80
C       4.43      10.02       2.83
C       4.84       8.94       4.68
C       2.88       5.11       5.12
C       4.91       5.34       4.36
C       4.12       5.75       0.69
C       0.66       8.64       4.43
C       2.80       7.30      27.26
C      19.43       7.28       2.87
C       4.37      24.42      10.02
C       4.78      22.57       8.95
C       2.78      22.14       5.11
C       4.81      22.90       5.34
C       4.11      26.57       5.76
C       0.59      23.37       9.03
C       2.83       0.00       7.29
C      19.37      24.32       7.19
C       4.44      17.23      24.43
C       4.82      18.28      22.56
C       2.85      22.13      22.15
C       4.88      21.98      22.92
C       4.15      21.50      26.58
C       0.67      18.64      22.84
C       2.77      19.95      27.26
C      -0.02      20.00      24.39
C       4.48       2.81      17.23
C       4.88       4.67      18.30
C       2.90       5.14      22.13
C       4.91       4.29      21.98
C       3.47       0.69      21.83
C       0.71       4.00      18.26
C       3.02       0.00      19.82
C      19.48       3.02      20.08
C      15.02      10.02      24.43
C      14.61       8.95      22.58
C      16.63       5.13      22.13
C      14.64       5.22      23.01
C      16.08       5.44      26.57
C      18.80       8.64      22.83
C      16.50       7.46      27.26
C      19.48       7.27      24.39
C      15.02       2.84      10.02
C      14.60       4.69       8.94
C      16.59       5.12       5.11
C      14.57       4.32       5.29
C      15.26       0.69       5.75
C      18.78       3.89       9.01
C      16.54      27.25       7.28
C       0.00       2.94       7.17
C      14.94      17.23       2.82
C      14.54      18.29       4.67
C      16.52      22.12       5.14
C      14.52      21.96       4.29
C      15.92      21.82       0.68
C      18.70      18.23       3.95
C      16.41      19.80      27.26
C      -0.08      20.06       2.97
C      14.94      24.44      17.24
C      14.53      22.59      18.30
C      16.54      22.11      22.12
C      14.54      22.98      22.03
C      15.95      26.55      21.83
C      18.71      22.78      18.64
C      16.39      27.25      19.81
C      -0.07      24.36      19.98
C      14.99      17.22      24.43
C      14.57      18.30      22.58
C      14.56      22.01      23.01
C      15.98      21.82      26.57
C      18.76      18.63      22.84
C      15.03       2.83      17.24
C      14.59       4.66      18.33
C      14.64       4.24      22.04
C      16.06       0.68      21.83
C      18.79       4.00      18.26
C      14.97      10.02       2.82
C      14.57       8.95       4.67
C      14.57       5.28       4.31
C      16.04       5.44       0.69
C      18.75       8.64       4.43
C      14.92      24.44      10.02
C      14.54      22.56       8.97
C      14.50      22.92       5.28
C      15.14      26.56       5.76
C      18.68      23.37       9.03
C       4.40      17.24       2.83
C       4.80      18.31       4.68
C       4.81      21.93       4.36
C       4.09      21.50       0.69
C       0.61      18.23       3.95
C       4.38      24.42      17.23
C       4.83      22.60      18.33
C       4.85      22.97      21.96
C       3.35      26.57      21.83
C       0.62      22.78      18.64
C       4.47      10.02      24.44
C       4.85       8.97      22.57
C       4.92       5.28      22.94
C       4.17       5.75      26.58
C       0.71       8.63      22.83
C       4.46       2.82      10.02
C       4.84       4.70       8.98
C       4.92       4.38       5.34
C       4.22       0.69       5.76
C       0.69       3.89       9.01
C      14.11      23.66      16.46
C      12.56      18.76      18.78
C      14.54      18.86      17.88
C      13.17      19.04      14.33
C      10.37      22.63      17.58
C      12.71      21.05      13.64
C       9.68      20.80      16.61
C      14.19      10.80      23.66
C      12.63       8.51      18.75
C      14.64       9.33      18.92
C      13.13      12.94      19.08
C      10.41       9.15      22.25
C      12.70      13.63      21.10
C       9.73      10.73      20.91
C      14.19       3.62      10.79
C      12.59       8.51       8.51
C      14.61       8.36       9.31
C      13.87       7.86      12.95
C      10.41       4.99       9.20
C      12.51       6.31      13.64
C       9.72       6.36      10.76
C      14.12      16.44       3.60
C      12.53      18.76       8.49
C      14.53      17.89       8.41
C      13.14      14.32       8.20
C      10.36      18.05       4.99
C      12.72      13.63       6.17
C       9.68      16.49       6.35
C       5.19      23.64      10.80
C       6.79      18.74       8.52
C       4.75      18.96       9.26
C       5.47      19.39      12.95
C       8.98      22.63       9.69
C       6.86      20.92      13.63
C       9.67      20.80      10.66
C       5.26      16.44      23.65
C       6.82      18.75      18.76
C       4.81      17.92      18.92
C       6.32      14.32      19.05
C       9.01      18.10      22.26
C       6.76      13.63      21.06
C       9.70      16.52      20.92
C       5.30       3.60      16.45
C       6.86       8.49      18.76
C       4.86       8.40      17.89
C       6.32       8.20      14.33
C       9.05       4.99      18.07
C       6.75       6.18      13.64
C       9.73       6.36      16.52
C       5.25      10.80       3.62
C       6.85       8.51       8.52
C       4.82       9.31       8.36
C       5.52      12.94       7.88
C       9.02       9.68       4.62
C       6.91      13.62       6.34
C       9.71      10.64       6.46
C       5.29       3.60      10.81
C       4.83       8.35       9.34
C       6.32       8.21      12.95
C       9.04       4.99       9.20
C       5.22      16.46       3.61
C       4.75      17.99       8.29
C       5.52      14.32       7.87
C       8.99      18.05       5.00
C       5.21      23.65      16.46
C       4.80      18.91      17.96
C       5.47      19.40      14.32
C       8.99      22.63      17.58
C       5.29      10.80      23.65
C       4.86       9.38      18.86
C       6.32      12.94      19.04
C       9.04       9.15      22.25
C      14.20       3.61      16.46
C      14.65       8.34      17.96
C      13.88       7.86      14.32
C      10.43       5.00      18.07
C      14.15      10.80       3.60
C      14.60       9.34       8.35
C      13.16      12.94       8.20
C      10.39       9.68       4.62
C      14.09      23.66      10.81
C      14.52      18.85       9.39
C      13.16      19.03      12.95
C      10.35      22.63       9.69
C      14.16      16.45      23.65
C      14.55      17.88      18.85
C      13.12      14.31      19.08
C      10.39      18.10      22.26
N       4.17       8.84       3.51
N       3.61       5.81       4.22
N       3.24       6.74       1.12
N       1.09       7.77       3.44
N       4.10      23.73       8.85
N       3.51      23.03       5.81
N       3.22      26.13       6.73
N       1.03      23.97       7.86
N       4.17      18.39      23.74
N       3.61      21.45      23.03
N       3.27      20.51      26.14
N       1.10      19.50      23.83
N       4.21       3.50      18.40
N       3.62       4.21      21.47
N       3.19       1.12      20.55
N       1.14       3.38      19.42
N      15.28       8.85      23.74
N      15.90       5.78      23.06
N      16.34       6.72      26.14
N      18.36       7.78      23.82
N      15.28       3.52       8.84
N      15.86       4.22       5.80
N      16.16       1.12       6.72
N      18.35       3.29       7.84
N      15.20      18.40       3.50
N      15.81      21.46       4.20
N      16.20      20.54       1.12
N      18.27      19.40       3.33
N      15.20      23.75      18.41
N      15.81      23.04      21.47
N      16.24      26.13      20.55
N      18.28      23.78      19.49
N      15.25      18.40      23.75
N      15.83      21.46      23.06
N      16.26      20.54      26.14
N      18.33      19.50      23.83
N      15.27       3.50      18.42
N      15.91       4.19      21.49
N      16.33       1.11      20.55
N      18.36       3.38      19.42
N      15.24       8.85       3.51
N      15.85       5.79       4.20
N      16.30       6.73       1.12
N      18.32       7.78       3.44
N      15.19      23.74       8.86
N      15.78      23.02       5.82
N      16.03      26.13       6.73
N      18.25      23.97       7.86
N       4.13      18.42       3.52
N       3.52      21.45       4.22
N       3.21      20.52       1.12
N       1.04      19.40       3.33
N       4.14      23.75      18.42
N       3.56      23.06      21.47
N       3.07      26.13      20.55
N       1.05      23.79      19.49
N       4.20       8.85      23.74
N       3.65       5.81      23.04
N       3.30       6.74      26.14
N       1.14       7.76      23.82
N       4.18       3.52       8.86
N       3.62       4.24       5.82
N       3.34       1.12       6.73
N       1.12       3.29       7.84
N      13.86      22.48      17.14
N      13.27      19.41      17.84
N      12.89      20.32      14.76
N      10.80      21.47      16.97
N      13.93      10.12      22.48
N      13.35       9.43      19.42
N      12.86      12.51      20.37
N      10.85      10.15      21.40
N      13.93       4.79      10.11
N      13.33       7.84       9.42
N      13.00       6.88      12.51
N      10.84       5.86      10.19
N      13.87      17.13       4.78
N      13.26      17.83       7.84
N      12.87      14.75       6.91
N      10.80      17.06       5.85
N       5.45      22.47      10.12
N       6.05      19.43       9.41
N       6.35      20.36      12.51
N       8.55      21.47      10.30
N       5.50      17.11      22.47
N       6.10      17.82      19.42
N       6.60      14.75      20.33
N       8.58      17.09      21.41
N       5.55       4.77      17.14
N       6.13       7.84      17.83
N       6.59       6.91      14.76
N       8.62       5.86      17.08
N       5.51      10.11       4.79
N       6.11       9.41       7.84
N       6.41      12.50       6.91
N       8.59      10.29       5.79
N       5.52       4.79      10.14
N       6.12       7.84       9.44
N       6.60       6.92      12.52
N       8.60       5.86      10.19
N       5.48      17.15       4.79
N       6.05      17.85       7.82
N       6.41      14.75       6.90
N       8.56      17.06       5.86
N       5.49      22.49      17.16
N       6.07      19.44      17.86
N       6.36      20.37      14.76
N       8.56      21.46      16.97
N       5.53      10.13      22.47
N       6.13       9.43      19.41
N       6.61      12.51      20.33
N       8.61      10.16      21.40
N      13.92       4.77      17.16
N      13.37       7.82      17.86
N      13.01       6.87      14.76
N      10.86       5.87      17.08
N      13.89      10.12       4.77
N      13.31       9.43       7.84
N      12.89      12.51       6.91
N      10.82      10.29       5.79
N      13.86      22.47      10.14
N      13.25      19.41       9.43
N      12.87      20.32      12.52
N      10.78      21.47      10.31
N      13.90      17.13      22.48
N      13.29      17.83      19.42
N      12.85      14.75      20.37
N      10.82      17.09      21.41
