33

C      15.93       8.45      29.98
C      14.84       7.83      29.36
C      14.24       8.52      28.25
C      14.72       9.80      27.90
C      15.78      10.41      28.53
C      16.37       9.70      29.60
C      15.91      12.56      24.45
C      14.86      13.37      24.46
C      14.29      13.72      25.69
O      16.08       6.66      31.47
C      15.83      12.41      26.94
O      17.64       8.28      31.49
C      16.26      11.84      28.24
C      16.59       7.70      31.10
C      14.70      13.24      26.90
C      16.39      12.03      25.68
C      13.09      14.71      25.68
C      16.71      12.23      23.22
O      17.73      11.53      23.30
O      16.17      12.66      22.17
C      13.14       7.83      27.48
O      12.67       6.78      28.02
O      12.68      15.09      26.82
H      14.52       7.00      29.65
H      14.30      10.25      27.20
H      17.07      10.09      30.06
H      14.51      13.71      23.66
H      14.23      13.45      27.67
H      17.09      11.42      25.67
H      15.94      12.42      28.95
H      17.23      11.85      28.27
O      12.72       8.41      26.45
O      12.70      15.06      24.53
