33

O      16.08      31.47      26.21
O      17.64      31.49      24.59
O      12.72      26.45      24.46
O      12.67      28.02      26.09
O      17.73      23.30      21.33
O      16.17      22.17      20.20
O      12.68      26.82      17.78
O      12.70      24.53      17.81
H      14.52      29.65      25.86
H      14.30      27.20      22.61
H      17.07      30.06      22.78
C      15.93      29.98      24.42
C      14.84      29.36      25.04
C      14.24      28.25      24.35
C      14.72      27.90      23.07
C      15.78      28.53      22.46
C      16.37      29.60      23.17
C      15.91      24.45      20.31
C      14.86      24.46      19.49
H      15.94      28.95      20.45
H      17.23      28.27      21.02
H      14.23      27.67      19.42
C      14.70      26.90      19.63
C      15.83      26.94      20.46
C      16.39      25.68      20.84
C      16.26      28.24      21.03
C      16.59      31.10      25.17
C      13.14      27.48      25.04
C      14.29      25.69      19.15
C      16.71      23.22      20.64
C      13.09      25.68      18.16
H      14.51      23.66      19.16
H      17.09      25.67      21.45
