33

H       8.11       7.00       3.22
H       8.32      10.25       5.66
H       5.55      10.09       2.81
H       8.12      13.71       9.21
H       8.39      13.45       5.19
H       5.54      11.42       7.20
H       6.69      12.42       3.92
H       5.40      11.85       4.60
C       6.70       8.45       2.89
C       7.79       7.83       3.51
C       8.38       8.52       4.62
C       7.91       9.80       4.97
C       6.84      10.41       4.34
C       6.26       9.70       3.27
C       6.72      12.56       8.41
C       7.77      13.37       8.41
C       8.33      13.72       7.18
C       7.93      13.24       5.97
C       6.79      12.41       5.93
C       6.24      12.03       7.18
C       6.37      11.84       4.63
C       6.03       7.70       1.77
C       9.49       7.83       5.39
C       5.92      12.23       9.65
C       9.54      14.71       7.19
O       6.55       6.66       1.39
O       4.99       8.28       1.38
O       9.91       8.41       6.42
O       9.96       6.78       4.84
O       4.90      11.53       9.56
O       6.46      12.66      10.70
O       9.94      15.09       6.05
O       9.93      15.06       8.34
