33

C      15.93      24.42       2.89
C      14.84      25.04       3.51
C      14.24      24.35       4.62
C      14.72      23.07       4.97
C      15.78      22.46       4.34
C      16.37      23.17       3.27
C      15.91      20.31       8.41
C      14.86      19.49       8.41
C      14.29      19.15       7.18
C      14.70      19.63       5.97
C      15.83      20.46       5.93
C      16.39      20.84       7.18
C      16.26      21.03       4.63
C      16.59      25.17       1.77
C      13.14      25.04       5.39
C      16.71      20.64       9.65
C      13.09      18.16       7.19
O      16.08      26.21       1.39
O      17.64      24.59       1.38
O      12.72      24.46       6.42
O      12.67      26.09       4.84
O      17.73      21.33       9.56
O      16.17      20.20      10.70
O      12.68      17.78       6.05
O      12.70      17.81       8.34
H      14.52      25.86       3.22
H      14.30      22.61       5.66
H      17.07      22.78       2.81
H      14.51      19.16       9.21
H      14.23      19.42       5.19
H      17.09      21.45       7.20
H      15.94      20.45       3.92
H      17.23      21.02       4.60
