33

C      15.93       8.45       2.89
C      14.84       7.83       3.51
C      14.24       8.52       4.62
C      14.72       9.80       4.97
C      15.78      10.41       4.34
C      16.37       9.70       3.27
C      15.91      12.56       8.41
C      14.86      13.37       8.41
C      14.29      13.72       7.18
C      14.70      13.24       5.97
C      15.83      12.41       5.93
C      16.39      12.03       7.18
C      16.26      11.84       4.63
C      16.59       7.70       1.77
C      13.14       7.83       5.39
O      16.08       6.66       1.39
O      12.67       6.78       4.84
O      17.64       8.28       1.38
O      12.72       8.41       6.42
C      16.71      12.23       9.65
O      17.73      11.53       9.56
O      16.17      12.66      10.70
C      13.09      14.71       7.19
O      12.68      15.09       6.05
O      12.70      15.06       8.34
H      14.52       7.00       3.22
H      14.30      10.25       5.66
H      17.07      10.09       2.81
H      14.51      13.71       9.21
H      14.23      13.45       5.19
H      17.09      11.42       7.20
H      15.94      12.42       3.92
H      17.23      11.85       4.60
