33

O       6.55       1.39      26.21
O       4.99       1.38      24.59
O       9.91       6.42      24.46
O       9.96       4.84      26.09
O       4.90       9.56      21.33
O       6.46      10.70      20.20
O       9.94       6.05      17.78
O       9.93       8.34      17.81
H       8.11       3.22      25.86
H       8.32       5.66      22.61
H       5.55       2.81      22.78
H       8.12       9.21      19.16
H       8.39       5.19      19.42
H       5.54       7.20      21.45
H       6.69       3.92      20.45
H       5.40       4.60      21.02
C       6.70       2.89      24.42
C       7.79       3.51      25.04
C       8.38       4.62      24.35
C       7.91       4.97      23.07
C       6.84       4.34      22.46
C       6.26       3.27      23.17
C       6.72       8.41      20.31
C       7.77       8.41      19.49
C       8.33       7.18      19.15
C       7.93       5.97      19.63
C       6.79       5.93      20.46
C       6.24       7.18      20.84
C       6.37       4.63      21.03
C       6.03       1.77      25.17
C       9.49       5.39      25.04
C       5.92       9.65      20.64
C       9.54       7.19      18.16
