33

C       3.46      21.50      16.43
C       1.23      23.32      16.43
C       0.00      24.20      16.43
O       2.94      21.98      12.87
O       4.49      20.76      13.99
C       3.55      21.54      18.95
C       2.85      22.00      17.64
C       1.79      22.94      17.67
H       1.48      23.29      14.40
O      -2.94      21.98      12.87
O      -4.49      20.76      13.99
O      -2.94      21.98      19.99
O      -4.49      20.76      18.88
C      -3.55      21.54      13.92
C      -2.85      22.00      15.22
C      -1.79      22.94      15.20
H      -1.48      23.29      18.47
H      -1.48      23.29      14.40
O       2.94      21.98      19.99
O       4.49      20.76      18.88
C      -3.55      21.54      18.95
C      -2.85      22.00      17.64
C      -1.79      22.94      17.67
H       0.00      24.77      15.65
H       0.00      24.77      17.22
C       3.55      21.54      13.92
C       2.85      22.00      15.22
C       1.79      22.94      15.20
H      -4.17      20.91      16.43
H       4.17      20.91      16.43
H       1.48      23.29      18.47
C      -3.46      21.50      16.43
C      -1.23      23.32      16.43
