33

O       6.55      31.47       6.66
O       4.99      31.49       8.28
O       9.91      26.45       8.41
O       9.96      28.02       6.78
O       4.90      23.30      11.53
O       6.46      22.17      12.66
O       9.94      26.82      15.09
O       9.93      24.53      15.06
H       8.11      29.65       7.00
H       8.32      27.20      10.25
H       5.55      30.06      10.09
H       8.12      23.66      13.71
H       8.39      27.67      13.45
H       5.54      25.67      11.42
H       6.69      28.95      12.42
H       5.40      28.27      11.85
C       6.70      29.98       8.45
C       7.79      29.36       7.83
C       8.38      28.25       8.52
C       7.91      27.90       9.80
C       6.84      28.53      10.41
C       6.26      29.60       9.70
C       6.72      24.45      12.56
C       7.77      24.46      13.37
C       8.33      25.69      13.72
C       7.93      26.90      13.24
C       6.79      26.94      12.41
C       6.24      25.68      12.03
C       6.37      28.24      11.84
C       6.03      31.10       7.70
C       9.49      27.48       7.83
C       5.92      23.22      12.23
C       9.54      25.68      14.71
