33

C       0.00      16.43       8.67
H       1.48      14.40       9.58
C      -3.55      18.95      11.33
C      -2.85      17.64      10.87
C      -1.79      17.67       9.93
C      -3.55      13.92      11.33
C      -2.85      15.22      10.87
C      -1.79      15.20       9.93
O      -2.94      12.87      10.89
O      -4.49      13.99      12.11
O      -2.94      19.99      10.89
O      -4.49      18.88      12.11
H      -1.48      18.47       9.58
C       3.55      13.92      11.33
C       2.85      15.22      10.87
C       1.79      15.20       9.93
H      -1.48      14.40       9.58
O       2.94      19.99      10.89
O       4.49      18.88      12.11
H       0.00      15.65       8.10
C       3.55      18.95      11.33
H       0.00      17.22       8.10
H      -4.17      16.43      11.96
H       1.48      18.47       9.58
H       4.17      16.43      11.96
O       2.94      12.87      10.89
O       4.49      13.99      12.11
C      -3.46      16.43      11.37
C      -1.23      16.43       9.54
C       2.85      17.64      10.87
C       1.79      17.67       9.93
C       3.46      16.43      11.37
C       1.23      16.43       9.54
