13

C       6.26       9.87      12.97
C       6.21      10.85      11.86
C       7.22      11.74      11.43
C       6.68      12.37      10.31
C       7.27      13.28       9.31
N       5.42      11.84      10.15
N       5.11      10.92      11.07
H       4.68      12.13       9.47
H       8.21      11.86      11.83
O       5.29       9.05      13.10
O       7.25       9.85      13.76
O       6.53      13.57       8.29
O       8.47      13.69       9.45
