13

C       0.93      10.41      11.43
C       1.93      10.84      10.53
C       1.39      11.96       9.90
C       1.98      12.96       8.99
O       0.01       9.17      13.23
O       1.97       8.51      12.42
N       0.13      12.13      10.43
N      -0.17      11.21      11.35
O       1.25      13.98       8.71
O       3.18      12.82       8.58
H      -0.60      12.80      10.14
H       2.93      10.44      10.42
C       0.97       9.31      12.40
