13

C       4.31       1.88       9.87
C       4.36       2.99      10.85
C       3.36       3.42      11.74
C       3.89       4.54      12.37
N       5.15       4.70      11.84
N       5.46       3.78      10.92
C       3.30       5.54      13.28
H       5.89       5.38      12.13
H       2.36       3.01      11.86
O       5.28       1.75       9.05
O       3.32       1.09       9.85
O       4.04       6.55      13.57
O       2.11       5.40      13.69
