20

H      16.95      14.97       5.77
H      18.06      16.49       9.58
H      16.20      18.02       8.99
H      13.80      18.63       9.43
H      12.50      14.98       7.59
H      14.90      14.35       7.13
N      19.21      15.57       7.99
N      18.84      15.06       6.77
N      17.03      15.81       7.78
O      10.75      16.26       8.78
O      11.37      18.45       9.01
C      17.53      15.22       6.64
C      18.12      16.02       8.59
C      15.67      16.16       8.04
C      15.39      17.36       8.70
C      14.06      17.69       8.93
C      13.02      16.84       8.53
C      13.32      15.64       7.87
C      14.65      15.29       7.62
C      11.58      17.21       8.80
