20

C       7.81      11.97      19.33
C       7.14      10.01      18.62
C       9.63      10.40      18.61
C      10.02       9.84      17.39
C      11.35       9.45      17.22
C      12.27       9.63      18.26
C      11.86      10.21      19.47
C      10.54      10.59      19.65
C      13.72       9.23      18.05
H       8.46      12.81      19.57
H       7.14       9.00      18.22
H       9.30       9.73      16.58
H      11.70       9.01      16.29
H      12.60      10.35      20.26
H      10.20      11.02      20.59
N       6.50      11.91      19.45
N       6.07      10.68      19.00
N       8.26      10.78      18.80
O      14.52       9.51      19.00
O      13.98       8.66      16.95
