218

Mg       4.27       7.74      14.00
Mg      11.22       4.48       1.50
Mg       5.79       2.70       9.13
Mg      -1.15       5.96      21.63
Mg       5.03       5.22      11.57
Mg      -0.89       7.27       0.00
Si      10.63       9.77       8.47
Si       6.18      10.17       4.38
Si      -0.56       0.67      14.66
Si       3.89       0.27      18.75
H       9.70       7.21       9.61
H       7.87       6.58      11.16
H       6.44      10.63      11.17
H       8.25      11.28       9.58
H       9.15       7.50       7.23
H       9.52       6.20       5.14
H      -0.47       9.19       3.74
H      -0.68      10.42       5.90
H       0.47       8.38       7.68
H       2.27       7.26       9.01
H       0.29       8.36      12.66
H      -1.56       9.39      11.36
H       9.98      11.92       6.47
H      12.00      -0.15       6.50
H       1.09      -0.35      10.39
H      -0.96      11.73      10.40
H       5.24      10.02       7.19
H       5.03       8.16       8.83
H       6.70       5.42       6.00
H       7.02       7.28       4.37
H       7.13       8.23       2.38
H       8.91       8.25       0.66
H      10.16      12.15       1.97
H       8.45      12.09       3.80
H       3.74       8.37       4.32
H       1.95       8.02       2.61
H       3.58      11.18       0.22
H       5.45      11.47       1.86
H       7.74      11.27       6.59
H       9.29      -1.27       8.05
H       5.89       0.02       5.77
H       4.36      12.58       4.26
H       0.37       3.23      13.52
H       2.20       3.86      11.97
H       3.62      -0.19      11.96
H       1.81      -0.85      13.55
H       0.92       2.94      15.91
H       0.54       4.24      17.99
H      10.53       1.25      19.39
H      10.75       0.02      17.23
H       9.59       2.06      15.45
H       7.79       3.18      14.12
H       9.78       2.08      10.47
H      11.62       1.05      11.77
H       0.08      -1.48      16.66
H      -1.94      10.59      16.63
H       8.98      10.79      12.74
H      11.02      -1.29      12.73
H       4.82       0.42      15.94
H       5.04       2.28      14.30
H       3.36       5.02      17.13
H       3.04       3.16      18.76
H       2.93       2.21      20.75
H       1.15       2.19      22.47
H      -0.09      -1.72      21.16
H       1.61      -1.65      19.33
H       6.32       2.07      18.81
H       8.12       2.42      20.52
H       6.48      -0.74      22.91
H       4.62      -1.03      21.27
H       2.32      -0.83      16.54
H       0.77      11.71      15.08
H       4.17      10.42      17.36
H       5.71      -2.14      18.87
C       9.10       9.29       9.47
C       8.97       7.96       9.92
C       7.95       7.60      10.79
C       7.04       8.57      11.25
C       7.15       9.89      10.79
C       8.16      10.25       9.91
C       6.01       8.24      12.26
C      10.60       9.03       6.75
C       9.86       7.86       6.49
C      10.05       7.13       5.31
C      10.93       7.61       4.33
C      -1.12       8.82       4.53
C      -1.26       9.51       5.74
C      11.14       6.85       3.07
C      -0.67       8.98       9.42
C       0.42       8.37       8.77
C       1.43       7.75       9.50
C       1.37       7.73      10.91
C       0.30       8.36      11.58
C      -0.71       8.96      10.84
C       2.45       7.07      11.69
C      -1.88      11.64       8.44
C      10.42      12.41       7.34
C      12.33      -0.75       7.35
C       0.19      -0.11       8.45
C       0.62      -0.86       9.55
C      -1.31      12.30       9.54
C       0.35       1.37       8.43
C       6.15       8.79       5.65
C       5.58       9.02       6.92
C       5.45       7.99       7.84
C       5.85       6.69       7.50
C       6.40       6.44       6.24
C       6.56       7.48       5.33
C       5.70       5.59       8.50
C       7.68      10.15       3.24
C       7.82       9.07       2.34
C       8.80       9.09       1.35
C       9.63      10.21       1.21
C       9.51      11.29       2.10
C       8.55      11.25       3.11
C      10.61      10.24       0.10
C       4.72       9.95       3.22
C       3.72       8.98       3.42
C       2.71       8.78       2.48
C       2.67       9.58       1.32
C       3.64      10.57       1.12
C       4.67      10.74       2.05
C       1.60       9.39       0.31
C       6.07      11.78       5.32
C       6.96      12.00       6.39
C       6.83      13.11       7.22
C       7.57      -0.53       7.00
C       6.69      -0.71       5.92
C       5.05      12.73       5.08
C       7.33       0.59       7.96
C       0.96       1.15      13.66
C       1.10       2.48      13.21
C       2.12       2.84      12.34
C       3.02       1.87      11.88
C       2.92       0.54      12.34
C       1.90       0.19      13.22
C       4.06       2.20      10.87
C      -0.54       1.41      16.38
C       0.20       2.58      16.64
C       0.01       3.31      17.82
C      -0.86       2.83      18.80
C      11.18       1.62      18.60
C      11.32       0.93      17.39
C      -1.08       3.59      20.06
C      10.73       1.46      13.71
C       9.64       2.07      14.36
C       8.63       2.69      13.63
C       8.69       2.71      12.22
C       9.76       2.08      11.55
C      10.78       1.48      12.29
C       7.61       3.36      11.44
C      11.95      -1.20      14.69
C      -0.35      -1.97      15.79
C      -2.27      11.19      15.78
C       9.87      10.55      14.68
C       9.44      11.30      13.58
C      11.37      -1.86      13.59
C       9.71       9.07      14.70
C       3.92       1.65      17.48
C       4.48       1.42      16.21
C       4.62       2.45      15.29
C       4.22       3.75      15.63
C       3.66       4.00      16.89
C       3.50       2.96      17.80
C       4.37       4.85      14.63
C       2.39       0.29      19.89
C       2.24       1.36      20.79
C       1.26       1.35      21.78
C       0.43       0.23      21.92
C       0.56      -0.85      21.03
C       1.51      -0.81      20.02
C      -0.55       0.20      23.03
C       5.34       0.49      19.91
C       6.35       1.46      19.71
C       7.35       1.66      20.66
C       7.39       0.86      21.81
C       6.42      -0.13      22.01
C       5.40      -0.30      21.08
C       8.47       1.05      22.82
C       4.00      -1.35      17.81
C       3.10      -1.56      16.74
C       3.24      -2.68      15.91
C       2.50      10.97      16.14
C       3.37      11.15      17.21
C       5.01      -2.29      18.05
C       2.73       9.85      15.17
O       5.67       7.00      12.49
O       5.45       9.16      12.93
O      10.97       5.56       3.11
O      11.48       7.50       2.04
O       3.16       6.17      11.16
O       2.62       7.47      12.90
O       0.05       2.06       7.41
O       0.80       2.03       9.43
O       5.57       5.93       9.71
O       5.72       4.39       8.06
O      10.08       5.00      22.67
O      10.27       7.19      22.80
O       0.91       8.32       0.33
O       0.53       6.23      22.59
O       8.06       0.65       8.99
O       6.38       1.42       7.72
O       4.39       3.44      10.64
O       4.62       1.28      10.20
O      -0.91       4.87      20.02
O      -1.41       2.94      21.09
O       6.91       4.27      11.97
O       7.44       2.97      10.23
O      10.01       8.38      15.72
O       9.26       8.41      13.70
O       4.49       4.51      13.42
O       4.35       6.05      15.07
O      -0.02       5.44       0.46
O      -0.21       3.24       0.33
O       9.16       2.12      22.80
O       9.53       4.21       0.54
O       2.00       9.79      14.14
O       3.68       9.02      15.41
