20

Mn       9.20       8.86       7.33
Mn       9.16      13.32       8.65
C       8.47      15.64       9.70
C       9.30       6.53       6.10
C       8.97      10.38      10.03
C       9.71      11.86       6.04
N      11.31      13.91       9.13
N       6.98       8.90       6.94
O       8.49      14.58      10.36
O       9.48       7.63       5.49
O       9.05       6.51       7.34
O       8.75      15.65       8.47
C      12.34      13.81       8.27
C       6.32      10.04       7.18
C      11.66      14.40      10.36
C       6.25       7.92       6.34
O       9.70      12.95       6.63
O       8.98       9.28       9.39
O       9.36      11.47       9.58
O       9.30      10.80       6.50
