216

Y       7.81      10.72       0.12
Y       0.80      13.53      21.30
Y       2.79      13.31       4.39
Y       4.21       2.70      12.59
Y      -0.81       5.47      16.78
Y       0.23       5.31       8.33
Y      -1.81       5.39      25.29
Y       5.20       2.58       4.11
Y       3.21       2.80      21.02
Y       1.80      13.41      12.83
Y       6.81      10.64       8.64
Y       5.77      10.80      17.08
H       2.52       9.83       0.13
H       5.86      11.90       3.02
H       4.50      14.40      21.39
H      -1.16      12.21      24.19
H       6.49      14.15       4.41
H       0.84      12.06       7.26
H       0.50       1.81      12.56
H       6.16       3.92       9.70
H       4.48       6.34      16.73
H       1.14       4.19      13.91
H       5.53       6.16       8.30
H       2.18       4.06       5.46
H       3.48       6.28      25.28
H       0.15       4.21      22.39
H       1.50       1.71       4.02
H       7.16       3.90       1.22
H      -0.49       1.96      21.01
H       5.16       4.05      18.15
H       5.50      14.30      12.86
H      -0.16      12.19      15.71
H       1.52       9.78       8.68
H       4.86      11.92      11.50
H       0.47       9.95      17.11
H       3.83      12.05      19.95
C       4.62      10.13       0.55
C       1.47      11.41       2.25
C       3.25      10.29       0.80
C       2.90      11.08       1.88
C       2.08       9.41      24.72
C       5.11      11.43       2.38
C       8.71       7.86       0.70
C      -2.40      14.08      21.79
C       3.45      12.74      23.45
C       5.23      13.91      22.03
C       4.88      13.07      23.08
C      -1.95      14.89      20.57
C      -1.90      12.71      23.57
C       1.72       0.30      21.86
C       2.29      16.03      20.44
C      -0.41      13.86       4.81
C       5.45      12.56       6.52
C       7.22      13.69       5.06
C       6.87      12.89       6.14
C       0.06      14.63       3.57
C       0.09      12.54       6.63
C       7.41       2.12      12.16
C       1.55       3.38      10.42
C      -0.23       2.28      11.90
C       0.13       3.07      10.82
C       6.94       1.35      13.40
C       6.91       3.44      10.33
C       3.32      15.91      12.01
C       2.39       6.04      16.33
C       5.54       4.69      14.66
C       3.75       5.86      16.08
C       4.11       5.03      15.03
C       1.92       6.82      17.56
C       1.89       4.67      14.53
C      -1.73       8.31      16.22
C       6.68       7.95      17.63
C       3.44       5.86       7.91
C       6.57       4.54       6.20
C       4.80       5.69       7.65
C       5.15       4.87       6.58
C       2.98       6.62       9.16
C       2.93       4.53       6.09
C       1.38       5.98      24.87
C       4.53       4.70      23.17
C       2.75       5.82      24.62
C       3.11       5.03      23.54
C       3.92       6.70       0.69
C       0.89       4.68      23.03
C      -2.71       8.25      24.71
C       8.41       2.03       3.63
C       2.55       3.37       1.96
C       0.77       2.20       3.38
C       1.13       3.04       2.33
C       7.95       1.22       4.84
C       7.91       3.40       1.85
C       4.28      15.81       3.55
C       3.71       0.08       4.97
C       6.41       2.25      20.61
C       0.55       3.55      18.89
C      -1.22       2.42      20.35
C      -0.87       3.22      19.28
C       5.95       1.48      21.84
C       5.91       3.57      18.78
C      -1.41      13.99      13.26
C       4.45      12.73      15.00
C       6.23      13.83      13.51
C       5.87      13.04      14.60
C      -0.94      14.76      12.01
C      -0.91      12.67      15.08
C       2.68       0.20      13.40
C       3.61      10.08       9.08
C       0.47      11.42      10.75
C       2.25      10.25       9.33
C       1.89      11.08      10.39
C       4.08       9.29       7.85
C       4.11      11.44      10.88
C       7.73       7.80       9.19
C      -0.68       8.16       7.78
C       2.57      10.25      17.51
C      -0.57      11.57      19.21
C       1.20      10.42      17.76
C       0.85      11.24      18.83
C       3.02       9.49      16.26
C       3.07      11.58      19.32
N       5.55      10.70       1.34
N       3.82      11.65       2.69
N      -1.47      13.48      22.56
N       5.81      12.46      23.86
N       0.52      13.29       5.60
N       7.81      12.31       6.93
N       6.48       2.70      11.37
N      -0.81       3.65      10.02
N       1.46       5.45      15.54
N       3.17       4.43      14.24
N       2.50       5.29       7.12
N       4.21       4.29       5.79
N       0.45       5.41      24.07
N       2.18       4.46      22.73
N       7.47       2.63       2.85
N       0.19       3.65       1.56
N       5.48       2.82      19.81
N      -1.81       3.80      18.48
N      -0.47      13.41      14.05
N       6.81      12.46      15.39
N       4.55      10.66       9.87
N       2.83      11.68      11.17
N       3.50      10.82      18.30
N       1.79      11.82      19.62
O       3.36       9.42      24.53
O       0.58      11.32       1.34
O       8.17       8.79       1.35
O       1.27      11.79       3.43
O       8.80       6.64       1.07
O       1.22       8.87      24.01
O      -0.67      14.89      20.37
O       2.54      12.89      22.58
O       1.21      15.43      22.52
O       2.80       0.90      19.78
O       3.28      12.30      24.62
O       2.17      14.82      20.06
O       1.83       1.51      22.24
O       6.18      15.44      19.89
O       1.34      14.66       3.42
O       4.54      12.66       5.65
O       5.28      12.15       7.71
O       8.20      15.13       2.83
O       5.66       1.37      13.58
O       2.46       3.30      11.30
O       3.86       0.77      11.37
O       1.72       3.75       9.22
O       3.22      14.69      11.64
O      -1.20       0.82      14.11
O       0.64       6.84      17.74
O       6.43       4.84      15.55
O      -1.22       7.38      15.55
O       6.12       8.87      18.28
O       5.73       4.24      13.50
O       6.80       6.74      18.01
O      -1.81       9.53      15.87
O       2.79       7.33      18.28
O       1.69       6.63       9.34
O       7.49       4.70       7.06
O       6.74       4.09       5.03
O       3.84       7.12       9.88
O       2.64       6.69       0.88
O       5.42       4.79      24.07
O      -2.17       7.32      24.06
O       4.73       4.32      21.98
O      -2.80       9.47      24.34
O       4.78       7.24       1.41
O       6.67       1.22       5.04
O       3.46       3.22       2.83
O       4.79       0.68       2.89
O       3.21      15.21       5.63
O       2.72       3.81       0.79
O       3.83       1.29       5.35
O       4.17      14.60       3.17
O      -0.18       0.67       5.52
O       4.66       1.45      21.99
O       1.46       3.45      19.77
O       0.72       3.96      17.70
O      -2.20       0.98      22.58
O       0.34      14.75      11.83
O       3.54      12.81      14.12
O       2.14      15.34      14.05
O       4.28      12.36      16.19
O       2.78       1.42      13.77
O       7.20      15.29      11.30
O       5.36       9.27       7.67
O      -0.43      11.27       9.87
O       7.22       8.73       9.87
O      -0.12       7.24       7.13
O       0.27      11.87      11.91
O      -0.80       9.38       7.41
O       7.81       6.58       9.54
O       3.21       8.78       7.13
O       4.31       9.48      16.07
O      -1.49      11.42      18.35
O      -0.74      12.02      20.38
O       2.16       8.99      15.53
