18

C       8.09       5.64      12.93
C       9.49       5.65      12.93
C       7.30       6.04      11.73
H      10.04       4.37      16.05
O       7.89       6.19      10.61
O       6.04       6.20      11.85
H      10.04       6.01      12.07
O      12.26       4.32      14.80
H       6.32       5.19      14.06
C       7.40       5.19      14.06
C      10.18       5.19      14.06
C      11.68       5.19      14.06
C       8.09       4.74      15.19
C       9.49       4.72      15.19
C       7.30       4.33      16.39
O       7.89       4.18      17.51
O       6.04       4.18      16.27
O      12.26       6.05      13.32
