96

P      -0.71       4.00       6.21
P       0.16       8.74      -6.21
P       4.13       6.42       5.14
P      -4.44       5.84      -5.06
H       2.71       8.91       6.18
H       4.18      10.70       6.38
H       2.90       8.78       4.41
H       5.01      10.36       4.84
H      -0.44      12.79      -6.45
H      -3.69       3.45      -6.34
H      -5.41       3.51      -6.34
H      -4.00       1.76      -4.25
H      -4.04       1.21      -5.96
H       0.87      13.17      -7.63
H      -5.57       1.48      -5.03
H      -2.35       7.31      -6.33
H      -4.22       5.36      -2.33
H      -1.59       3.56       3.59
H       1.22       9.03      -3.69
H       1.63       5.69       6.44
H      -3.33       4.75      -0.21
H      -2.20       3.74       1.29
H       3.07       7.17      -0.11
H      -0.49      12.11      -8.10
H       1.87      11.48      -6.31
H       1.23      10.55      -7.72
H      -2.56       0.96       6.60
H       2.57      11.63       2.33
H       1.00       2.06       6.39
H       6.06       8.26       0.73
H       3.15       9.93       0.68
H      -0.29      -0.32       4.98
H       1.42       0.04       5.26
H       0.47       0.96       4.00
C       4.03      10.38       5.33
C      -1.43       4.40       1.65
C      -2.68       5.31      -0.87
C      -1.39       5.72      -0.47
C      -3.22       5.68      -2.11
C      -2.45       6.39      -3.04
C      -1.18       6.88      -2.64
C      -0.67       6.59      -1.33
C      -2.90       6.61      -4.37
C      -2.04       7.23      -5.30
C       3.45       8.98       5.35
C      -0.82       7.78      -4.91
C      -0.41       7.65      -3.55
C       0.31       6.02       1.29
C       0.77       5.84       2.65
C      -0.03       5.06       3.54
C      -1.05       4.28       2.99
C       0.71       8.32      -3.06
C       1.14       8.17      -1.74
C       0.54       7.18      -0.89
C       1.06       6.78       0.38
C       2.40       6.96       0.70
C       2.03       6.38       3.07
C       2.89       6.88       2.01
C       0.95      11.15      -6.83
C       2.35       6.32       4.50
C       1.40       5.74       5.38
C       0.26       5.05       4.94
C       0.18      12.38      -7.27
C       0.09       1.52       6.08
C       0.44       0.50       5.01
C      -4.55       3.30      -5.69
C      -4.54       1.85      -5.21
C      -0.86       5.39       0.82
S      -0.61       0.71       7.44
S       3.00      11.53       4.44
S       4.57       7.48       2.08
S       2.28       9.44      -1.22
O      -2.18       4.43       6.00
O      -0.16       4.27       7.65
O      -5.73       6.48      -4.51
O      -4.55       4.16      -4.57
O       3.97       6.86       6.81
O       4.04       5.27       6.14
O      -0.91       2.36       5.63
O       4.52       8.08       5.57
O       0.21      -0.46       7.82
O      -0.69       1.73       8.52
O      -2.14       0.19       7.04
O       1.76      11.79       5.24
O       3.71      12.83       4.20
O       2.59      10.87       2.96
O       4.62       8.74       2.86
O       5.47       6.46       2.69
O       5.18       7.85       0.56
O       3.67       9.03      -1.62
O       1.95      10.73      -1.91
O       2.22       9.71       0.43
O       1.63       8.30      -6.00
O      -0.39       8.47      -7.65
O      -4.51       5.88      -6.81
O       0.16      10.46      -5.90
