56

Sr      -0.19       1.17      18.29
Sr       0.75       6.40       9.31
Sr       4.87       9.51       0.10
Sr       3.94       4.28       9.09
H       5.21       3.85       3.10
H       5.01       4.71       5.62
H       3.67       9.12       6.05
H       3.80      10.02       3.53
H      -0.53       6.83      15.29
H      -0.33       5.97      12.78
H       1.01       1.56      12.35
H       0.88       0.66      14.86
C       0.67       2.96       3.66
C       5.93       3.67       3.89
C       5.81       4.09       5.23
C       0.48       3.70       6.00
C       0.74       4.11       7.38
C       1.10       2.38       2.36
C       1.77       8.23       5.53
C       2.93       8.94       5.27
C       3.02       9.38       3.93
C       1.90       9.00       3.19
C       1.64       9.38       1.80
C       1.36       7.64       6.83
C       4.01       7.72      14.74
C      -1.25       7.01      14.50
C      -1.13       6.59      13.16
C       4.20       6.98      12.39
C       3.94       6.57      11.01
C       3.58       8.30      16.03
C       2.91       2.45      12.87
C       1.75       1.74      13.12
C       1.67       1.30      14.46
C       2.78       1.68      15.21
C       3.04       1.30      16.60
C       3.32       3.04      11.57
S       1.65       2.82       5.07
S       0.76       8.10       4.13
S       3.03       7.86      13.32
S       3.92       2.58      14.26
O       0.35       2.59       1.35
O       2.19       1.71       2.32
O       1.94       4.34       7.76
O      -0.26       4.28       8.18
O       2.16       7.80       7.82
O       0.25       7.01       6.89
O       0.45       9.61       1.41
O       2.64       9.54       1.00
O       4.34       8.09      17.04
O       2.49       8.97      16.08
O       2.74       6.34      10.63
O       4.94       6.40      10.22
O       2.52       2.88      10.57
O       4.43       3.67      11.50
O       4.23       1.07      16.99
O       2.04       1.14      17.39
