30

C       9.12       8.57       8.54
C       9.12       8.57       7.07
C       9.12       8.57       4.23
C       9.12       8.57       2.75
C       7.98       8.36      10.67
C       7.94       8.35       9.28
C       8.08       9.19       6.35
C       8.08       9.20       4.95
C       7.93       8.68       2.02
C       7.97       8.68       0.63
H       7.08       8.16      11.26
H       7.00       8.15       8.77
H       7.29       9.71       6.88
H       7.30       9.73       4.42
H       6.96       8.74       2.50
H       7.06       8.77       0.04
N       9.11       8.57      11.37
N       9.11       8.57      -0.08
C      10.25       8.79      10.67
C      10.29       8.79       9.28
C      10.15       7.95       6.35
H      11.24       8.99       8.78
H      11.14       8.98      11.26
H      10.95       7.43       6.88
C      10.15       7.94       4.95
H      10.94       7.41       4.42
C      10.31       8.46       2.01
H      11.28       8.40       2.50
C      10.26       8.46       0.63
H      11.17       8.37       0.04
