30

C      10.27       0.31      13.95
C      10.23       0.29      15.33
C       9.12      -0.00       7.43
C       9.12      -0.00       8.91
C       9.12      -0.00      11.74
C       9.12      -0.00      13.21
N       9.11       0.01       4.61
N       9.11      -0.01      16.04
H       7.16      -0.66       4.72
H       7.08      -0.70       7.20
H       7.12       0.82       9.09
C       8.02      -0.36       5.31
C       7.98      -0.37       6.70
C       7.99       0.43       9.63
C       7.99       0.44      11.02
H       7.12       0.82      11.56
C       7.96      -0.31      13.94
H       7.03      -0.58      13.45
C       8.00      -0.30      15.33
H       7.12      -0.56      15.91
H      11.07       0.67       4.72
H      11.16       0.70       7.20
H      11.11      -0.82       9.09
H      11.11      -0.82      11.56
H      11.20       0.58      13.45
H      11.11       0.54      15.92
C      10.21       0.36       5.31
C      10.26       0.37       6.70
C      10.25      -0.44       9.63
C      10.25      -0.44      11.02
