30

C       3.05      -0.00      24.20
C       3.04      -0.00      22.73
C       3.04      -0.00      19.90
C       3.04      -0.00      18.43
C       4.14       0.35      26.33
C       4.18       0.37      24.94
C       4.17      -0.44      22.01
C       4.17      -0.44      20.61
C       4.20       0.31      17.69
C       4.16       0.30      16.30
H       5.01       0.66      26.92
C       1.91      -0.37      24.94
H       5.04      -0.82      22.54
H       5.04      -0.82      20.07
C       1.92       0.43      22.01
C       1.91       0.43      20.62
C       1.89      -0.31      17.69
C       1.95      -0.36      26.33
H       5.09       0.70      24.43
H       5.13       0.58      18.19
H       5.04       0.55      15.72
C       1.93      -0.29      16.30
H       1.09      -0.67      26.92
H       1.00      -0.70      24.43
H       1.05       0.81      22.55
H       1.05       0.81      20.07
H       0.96      -0.58      18.18
H       1.05      -0.54      15.72
N       3.05      -0.01      27.03
N       3.04       0.01      15.60
