30

C       4.18       8.78      20.97
C       4.22       8.78      22.36
C       4.08       7.95      25.29
C       4.08       7.94      26.68
C       4.24       8.46      29.62
C       4.19       8.46      31.01
C       3.04       8.57      23.09
C       3.04       8.57      24.57
C       3.04       8.57      27.41
C       3.05       8.57      28.88
C       1.91       8.36      20.97
C       1.87       8.35      22.36
C       2.01       9.19      25.29
C       2.01       9.19      26.68
C       1.86       8.67      29.62
C       1.90       8.67      31.01
H       5.07       8.98      20.38
H       5.16       8.99      22.86
H       4.87       7.43      24.75
H       4.87       7.41      27.22
H       5.21       8.40      29.13
H       5.10       8.37      31.59
H       1.02       8.16      20.38
H       0.92       8.15      22.86
H       1.22       9.70      24.75
H       1.22       9.72      27.22
H       0.89       8.73      29.14
H       0.99       8.76      31.60
N       3.05       8.57      20.27
N       3.05       8.57      31.71
