30

C       8.02       0.35      21.13
C       7.98       0.36      22.51
C       7.99      -0.44      25.45
C       9.12      -0.00      23.25
C       9.12      -0.00      24.73
C       7.99      -0.44      26.84
C       9.12      -0.00      27.56
C       9.12      -0.00      29.03
C       7.96       0.31      29.76
C       8.01       0.30      31.15
C      10.22      -0.36      21.12
C      10.26      -0.37      22.51
C      10.25       0.43      25.45
C      10.25       0.43      26.84
C      10.28      -0.31      29.76
C      10.23      -0.30      31.15
H       7.16       0.66      20.54
H       7.08       0.70      23.02
H       7.13      -0.82      24.91
H       7.13      -0.82      27.38
H       7.03       0.58      29.27
H       7.13       0.55      31.73
H      11.08      -0.67      20.53
H      11.16      -0.70      23.02
H      11.12       0.82      24.91
H      11.12       0.81      27.38
H      11.21      -0.59      29.27
H      11.12      -0.55      31.73
N       9.12      -0.01      20.43
N       9.12       0.00      31.85
