30

C       3.04      17.14       8.38
C       3.04      17.14       6.91
C       3.04      17.14       4.08
C       3.04      17.14       2.61
C       4.14      16.79      10.51
C       4.18      16.77       9.12
C       4.17      17.58       6.19
C       4.17      17.58       4.80
C       4.20      16.83       1.88
C       4.15      16.84       0.49
H       5.00      16.48      11.10
H       5.08      16.44       8.62
H       5.03      17.96       6.73
H       5.03      17.96       4.26
N       3.04      17.15      11.21
H       5.13      16.56       2.37
H       5.03      16.59      -0.09
N       3.04      17.14      -0.22
C       1.94      17.50      10.51
C       1.90      17.51       9.12
C       1.91      16.71       6.19
H       1.00      17.84       8.62
C       1.91      16.71       4.80
H       1.05      16.32       6.73
H       1.04      16.32       4.26
C       1.88      17.45       1.87
C       1.93      17.44       0.49
H       0.95      17.72       2.37
H       1.08      17.81      11.10
H       1.04      17.69      -0.10
