16

C       4.60       1.23       6.54
Zn       7.44      -0.93      11.55
O       5.65      -1.63      11.07
Zn       6.02       0.93       8.86
O       8.74      -1.48      10.13
O       5.61      -1.02       8.87
C       8.79      -2.75       9.99
O       5.81       1.41       6.96
O       7.81       1.63       9.34
O       4.72       1.48      10.28
C       8.28       1.67      10.53
C       4.68       2.75      10.41
O       7.65      -1.42      13.45
C       8.86      -1.23      13.86
O       7.86       1.02      11.53
C       5.19      -1.68       9.88
