27

Zn       0.28       8.69      13.34
Zn      -1.57       6.94       7.06
Zn      -0.64       7.82      10.20
C      -2.22       5.38       8.91
C      -2.46       9.44       8.25
O      -2.34       8.77       7.16
H      -0.55       5.88       4.69
O      -2.01       7.23      11.63
H      -0.73       9.76      15.72
O      -2.88       5.48       7.83
O       1.59      10.16      12.58
C       1.17       6.20      12.16
O      -1.44       6.03       5.17
O      -0.12       9.54      11.33
O       1.05       6.87      13.24
C      -2.32       7.52      12.83
O       0.35       7.39       6.77
O      -2.17       9.06       9.42
C      -2.53       6.05       4.33
C       1.03       8.12       7.57
O      -1.17       6.10       9.08
C       1.25       9.59      16.08
O       0.88       6.57      10.99
O       0.15       9.61      15.23
O       0.73       8.41       8.77
O      -1.63       8.24      13.64
C       0.94      10.26      11.49
