450

C       0.59      16.33      26.31
C       0.59      17.50      25.57
C       0.43      18.57      26.45
C       0.42      16.67      27.65
C       0.35      79.78      28.72
C       0.31      80.13      30.10
C       0.36      81.33      31.98
C       0.23      79.99      32.34
C       0.19      79.25      31.17
C       0.45      82.43      32.88
C       0.49      19.75      32.48
C       0.39      21.65      31.28
C       0.58      22.00      32.62
C       0.64      20.83      33.36
C       0.24      22.58      30.21
C       0.18      22.23      28.84
C       0.23      21.03      26.95
C       0.05      22.37      26.60
C       0.01      23.11      27.77
C       0.33      19.94      26.06
C       0.27      20.22      24.67
C       9.60      20.16      23.99
C       9.53      20.40      22.61
C       0.14      20.70      21.86
C       1.37      20.76      22.55
C       1.44      20.53      23.94
C       0.06      20.88      20.45
C       0.98      20.23      19.58
C       0.82      20.30      18.18
C      10.31      21.02      17.63
C       9.42      21.70      18.48
C       9.58      21.64      19.87
C       0.21      23.96      30.53
C       9.62      24.55      31.12
C       9.63      25.91      31.48
C       0.20      26.71      31.24
C       1.34      26.12      30.65
C       1.35      24.76      30.31
C       0.25      28.06      31.65
C       0.25      28.39      33.03
C       0.58      29.69      33.45
C       0.90      30.68      32.51
C       0.84      30.38      31.13
C       0.52      29.08      30.71
C       0.38      82.15      34.27
C       1.54      81.92      35.03
C       1.45      81.70      36.42
C       0.20      81.70      37.07
C       9.60      81.92      36.29
C       9.68      82.14      34.91
C       0.09      81.52      38.48
C       9.62      80.71      39.03
C       9.41      80.65      40.42
C      10.24      81.37      41.30
C       0.74      82.13      40.77
C       0.94      82.21      39.38
C       0.37      78.39      28.41
C       1.54      77.64      28.61
C       9.78      77.75      27.89
C       9.81      76.38      27.57
C       0.42      75.63      27.79
C       1.57      76.27      28.31
C       0.49      74.26      27.44
C       0.70      73.28      28.44
C       0.98      71.95      28.08
C       1.11      71.60      26.72
C       0.88      72.57      25.72
C       0.56      73.89      26.08
C       4.11      49.73      33.75
C       4.11      48.51      33.11
C       3.94      48.73      31.74
C       3.94      50.73      32.78
C       3.86      52.12      33.05
C       3.83      53.14      32.06
C       3.88      54.17      30.08
C       3.76      55.15      31.07
C       3.72      54.51      32.29
C       3.96      54.39      28.68
C       4.01      53.37      27.70
C       3.91      51.38      26.65
C       4.09      52.37      25.68
C       4.15      53.59      26.32
C       3.76      49.99      26.38
C       3.70      48.98      27.37
C       3.75      47.94      29.35
C       3.57      46.97      28.37
C       3.54      47.61      27.15
C       3.85      47.71      30.75
C       3.79      46.37      31.20
C       2.55      45.81      31.58
C       2.49      44.49      32.07
C       3.66      43.70      32.18
C       4.89      44.27      31.78
C       4.96      45.58      31.29
C       3.58      42.39      32.74
C       4.50      41.96      33.73
C       4.34      40.71      34.37
C       3.27      39.87      34.03
C       2.37      40.27      33.01
C       2.54      41.51      32.37
C       3.73      49.58      25.02
C       2.59      49.79      24.22
C       2.59      49.42      22.86
C       3.73      48.82      22.29
C       4.87      48.60      23.10
C       4.88      48.99      24.45
C       3.78      48.50      20.92
C       3.78      49.53      19.95
C       4.11      49.25      18.61
C       4.42      47.93      18.21
C       4.36      46.89      19.17
C       4.05      47.17      20.51
C       3.90      55.74      28.23
C       5.06      56.51      28.05
C       4.97      57.82      27.54
C       3.72      58.39      27.22
C       2.55      57.61      27.42
C       2.64      56.30      27.92
C       3.61      59.71      26.67
C       2.58      60.58      27.09
C       2.37      61.82      26.46
C       3.20      62.22      25.39
C       4.26      61.38      24.99
C       4.46      60.14      25.62
C       3.88      52.54      34.41
C       5.06      53.08      34.96
C       2.73      52.41      35.22
C       2.77      52.82      36.57
C       3.94      53.39      37.11
C       5.09      53.51      36.30
C       4.01      53.77      38.47
C       4.22      55.12      38.82
C       4.51      55.48      40.15
C       4.64      54.48      41.14
C       4.41      53.13      40.80
C       4.08      52.78      39.48
C       7.63      39.47       1.10
C       7.63      39.53       2.48
C       7.47      38.23       2.97
C       7.46      38.14       0.72
C       7.39      69.70      54.84
C       7.35      68.33      54.45
C       7.40      66.10      54.55
C       7.28      66.47      53.21
C       7.24      67.84      53.15
C       7.49      64.78      55.05
C       7.54      32.41       0.97
C       7.43      32.51       3.22
C       7.62      31.17       2.85
C       7.68      31.12       1.47
C       7.28      32.97       4.56
C       7.23      34.33       4.94
C       7.28      36.56       4.85
C       7.10      36.20       6.18
C       7.06      34.82       6.24
C       7.37      37.89       4.35
C       7.32      38.95       5.29
C       6.08      39.56       5.58
C       6.02      40.64       6.47
C       7.18      41.14       7.11
C       8.42      40.51       6.82
C       8.49      39.42       5.92
C       7.10      42.27       7.97
C       8.02      43.35       7.84
C       7.86      44.52       8.60
C       6.78      44.65       9.50
C       5.89      43.57       9.66
C       6.06      42.39       8.91
C       7.25      32.00       5.59
C       6.10      31.20       5.81
C       6.11      30.21       6.80
C       7.24      30.01       7.62
C       8.39      30.81       7.40
C       8.40      31.79       6.39
C       7.29      28.98       8.59
C       7.29      27.63       8.18
C       7.62      26.61       9.09
C       7.94      26.93      10.43
C       7.87      28.27      10.86
C       7.56      29.29       9.94
C       7.42      63.72      54.11
C       8.59      63.17      53.54
C       8.49      62.07      52.66
C       7.24      61.51      52.32
C       6.08      62.07      52.91
C       6.16      63.16      53.79
C       7.13      60.37      51.46
C       6.10      60.31      50.49
C       5.89      59.14      49.74
C       6.72      58.02      49.93
C       7.78      58.09      50.85
C       7.98      59.25      51.62
C       7.41      70.67      53.80
C       8.59      70.87      53.05
C       6.26      71.43      53.50
C       6.29      72.40      52.47
C       7.47      72.58      51.71
C       8.61      71.81      52.01
C       7.54      73.57      50.70
C       7.74      73.19      49.35
C       8.03      74.17      48.38
C       8.16      75.53      48.75
C       7.93      75.90      50.09
C       7.61      74.93      51.06
C      10.09      22.82      14.67
C       9.53      23.93      15.33
C       8.70      24.81      14.61
C       8.43      24.55      13.25
C       7.66      25.48      12.39
C       0.37      21.84      15.38
C       3.05      36.41      33.95
C       2.49      36.43      32.65
C       1.66      35.36      32.25
C       1.39      34.32      33.16
C       0.62      33.11      32.78
C       3.89      37.51      34.45
C       6.56      46.32      12.53
C       5.99      45.19      13.16
C       5.17      45.37      14.29
C       4.90      46.68      14.74
C       4.14      46.96      15.98
C       7.41      46.19      11.33
C       9.95      79.63      44.37
C       9.14      78.63      43.79
C       8.34      77.83      44.62
C       8.38      78.03      46.02
C       7.68      77.14      46.97
C       0.25      80.49      43.54
C       2.91      65.75      25.36
C       2.10      65.75      26.51
C       1.30      66.87      26.79
C       1.33      67.97      25.92
C       0.64      69.25      26.21
C       3.78      64.60      25.03
C       6.43      56.22      46.89
C       5.61      57.22      46.31
C       4.81      56.90      45.20
C       4.85      55.59      44.68
C       4.16      55.21      43.43
C       7.29      56.51      48.05
H       1.01      72.33      24.73
H       0.47      74.59      25.34
H       1.20      71.27      28.81
H       0.69      73.54      29.43
H       2.44      75.75      28.45
H       2.39      78.09      28.97
H       8.97      75.94      27.19
H       8.92      78.28      27.73
H       0.69      15.40      25.91
H       0.69      17.54      24.55
H       0.14      18.53      28.48
H       0.16      19.79      30.46
H       0.10      78.23      31.14
H       0.17      79.60      33.28
H       2.46      81.93      34.58
H       2.31      81.54      36.94
H       8.83      82.32      34.38
H       8.67      81.97      36.73
H       0.75      20.80      34.37
H       0.65      22.93      33.02
H      10.51      22.76      25.66
H      10.44      24.12      27.81
H       8.79      23.99      31.30
H       8.79      26.31      31.92
H       2.20      24.35      29.91
H       2.20      26.67      30.50
H       0.57      28.86      29.71
H       1.11      31.08      30.44
H       0.66      29.88      34.45
H       0.11      27.66      33.73
H       2.35      20.57      24.41
H       2.24      20.98      22.05
H       8.90      22.13      20.46
H       8.63      22.22      18.09
H       1.46      19.79      17.58
H       1.73      19.64      19.96
H       8.63      20.31      22.14
H       8.74      19.93      24.50
H       8.99      80.19      38.42
H       8.63      80.09      40.78
H       1.67      82.83      39.03
H       1.34      82.67      41.40
H       2.38      32.01      32.53
H       9.80      82.26      43.05
H       2.41      70.09      26.95
H       9.94      20.07      15.89
H       4.53      52.40      41.50
H       3.98      51.79      39.24
H       4.72      56.46      40.37
H       4.22      55.85      38.10
H       5.96      53.90      36.68
H       5.91      53.17      34.39
H       1.93      52.72      37.15
H       1.87      52.02      34.84
H       4.21      49.85      34.76
H       4.20      47.61      33.58
H       3.66      50.51      30.76
H       3.69      51.60      28.68
H       3.62      54.99      33.19
H       3.69      56.16      30.94
H       5.98      56.12      28.26
H       5.83      58.36      27.42
H       1.78      55.75      28.03
H       1.63      57.96      27.16
H       4.26      54.49      25.85
H       4.16      52.25      24.67
H       3.48      45.96      28.50
H       3.41      47.14      26.25
H       1.75      50.23      24.62
H       1.75      49.60      22.30
H       5.73      48.85      25.00
H       5.72      48.20      22.70
H       4.09      46.41      21.19
H       4.63      45.94      18.90
H       4.20      50.02      17.94
H       3.65      50.50      20.23
H       5.87      45.97      31.02
H       5.76      43.72      31.84
H       1.86      41.77      31.65
H       1.58      39.67      32.76
H       4.98      40.45      35.12
H       5.25      42.58      34.05
H       1.58      44.14      32.38
H       1.69      46.37      31.54
H       1.95      60.32      27.86
H       1.60      62.41      26.76
H       5.19      59.52      25.26
H       4.86      61.65      24.21
H       5.90      47.28      17.05
H       2.77      63.29      23.74
H       5.93      55.45      42.33
H       2.90      38.84      35.72
H       8.06      76.87      50.38
H       7.51      75.22      52.04
H       8.24      73.87      47.43
H       7.73      72.21      49.08
H       9.48      71.95      51.49
H       9.43      70.33      53.25
H       5.45      72.95      52.28
H       5.39      71.30      54.03
H       7.73      40.29       0.49
H       7.72      40.39       3.02
H       7.19      36.50       1.92
H       7.21      34.15       2.01
H       7.14      68.38      52.29
H       7.21      65.84      52.40
H       9.51      63.55      53.77
H       9.36      61.70      52.25
H       5.31      63.53      54.21
H       5.15      61.67      52.73
H       7.79      30.25       0.93
H       7.69      30.36       3.46
H       7.00      36.82       6.99
H       6.93      34.28       7.09
H       5.27      31.33       5.23
H       5.27      29.63       6.93
H       9.25      32.34       6.24
H       9.24      30.67       7.96
H       7.60      30.27      10.25
H       8.14      28.52      11.81
H       7.71      25.65       8.76
H       7.16      27.38       7.19
H       9.39      39.00       5.72
H       9.28      40.83       7.26
H       5.38      41.63       9.05
H       5.10      43.65      10.31
H       8.50      45.31       8.45
H       8.77      43.32       7.14
H       5.11      41.09       6.63
H       5.22      39.24       5.12
H       5.47      61.10      50.34
H       5.11      59.10      49.08
H       8.72      59.25      52.33
H       8.38      57.27      51.01
H       9.41      26.25      11.57
H       6.29      56.04      49.83
H       9.46      76.08      47.33
H       6.41      46.63       9.54
H       8.31      25.64      15.08
H       9.73      24.12      16.31
H       6.78      24.94      12.01
H       7.30      26.33      12.97
H       1.15      22.38      15.94
H       0.89      21.20      14.66
H       1.28      35.35      31.30
H       2.69      37.19      32.00
H      10.30      33.05      33.43
H       0.27      33.18      31.75
H       4.67      37.73      33.70
H       4.41      37.21      35.36
H       4.78      44.56      14.77
H       6.20      44.24      12.83
H       3.26      47.56      15.71
H       3.78      46.03      16.43
H       8.18      45.44      11.51
H       7.92      47.14      11.13
H       7.77      77.08      44.21
H       9.13      78.47      42.78
H       6.99      77.74      47.57
H       7.10      76.38      46.44
H       0.92      79.85      42.95
H       0.88      81.13      44.16
H       0.73      66.89      27.64
H       2.09      64.95      27.15
H      10.51      69.46      25.40
H       0.06      69.17      27.14
H       4.44      64.42      25.88
H       4.40      64.82      24.16
H       4.25      57.63      44.76
H       5.61      58.17      46.68
H       3.47      54.39      43.65
H       3.57      56.05      43.04
H       7.96      57.34      47.78
H       7.92      55.65      48.29
N       0.34      18.02      27.68
N       0.41      81.37      30.63
N       0.36      20.30      31.25
N       0.31      21.00      28.30
N      10.04      21.03      16.24
N       9.94      81.32      42.67
N       1.63      70.34      26.32
N       1.45      31.90      32.97
N       3.86      50.08      31.59
N       3.93      52.98      30.72
N       3.88      52.03      27.84
N       3.83      49.13      28.71
N       3.00      38.67      34.71
N       2.90      63.43      24.74
N       5.15      54.77      42.42
N       4.98      47.72      16.93
N       7.38      37.44       1.88
N       7.45      67.25      55.26
N       7.41      33.21       2.06
N       7.35      35.41       4.14
N       6.51      45.84      10.19
N       6.42      56.85      49.20
N       8.68      76.49      47.86
N       8.49      25.92      11.25
N       9.00      23.45      12.69
N       9.78      22.63      13.36
N       1.96      34.39      34.39
N       2.73      35.37      34.77
N       5.48      47.71      14.07
N       6.25      47.54      13.02
N       9.18      79.02      46.49
N       9.92      79.77      45.72
N       2.14      67.89      24.82
N       2.88      66.84      24.56
N       5.66      54.68      45.30
N       6.40      54.98      46.34
