21

O       5.08       1.88      14.13
O       6.57       3.10      13.03
O       9.19       3.20      16.19
O       7.20       2.28      16.06
O       7.03      -0.50      16.98
O       6.02      -2.44      17.39
O       4.53       1.13      16.89
O       3.79      -0.65      17.99
O       4.45      -3.18      14.83
O       4.75      -1.02      14.96
C       8.35       0.38      13.43
C       5.43       2.67      13.23
C       8.19       2.67      16.74
C       6.91      -1.57      17.59
C       3.87       0.56      17.78
C       4.66      -2.07      14.27
Mg       8.23       3.23      14.29
Mg       4.14      -2.28      16.72
Mg       6.02       0.60      15.51
O       7.37      -0.05      14.03
O       8.93       1.48      13.62
