9

C       4.75       2.05       3.40
Cd       5.50       4.77       3.65
O       6.00       4.77       5.88
C       6.91       4.34       6.66
O       3.85       6.46       4.17
C       4.19       7.29       3.28
O       3.99       3.10       3.42
O       7.56       4.71       2.77
C       8.21       5.73       3.16
