9

C       0.23       3.37      16.06
O       1.12      -1.04      15.30
O       0.98       2.32      16.05
Cd      -0.53       0.65      15.82
O      -2.59       0.72      16.69
C      -1.93       1.08      12.81
C       0.78      -1.87      16.19
C      -3.24      -0.31      16.30
O      -1.02       0.65      13.59
