10

C      -0.74       4.96      19.22
C       0.41       5.89      19.71
Cd      -1.81       7.71      18.82
O       0.23       7.14      19.66
O      -0.99       8.65      16.96
O      -1.82       5.49      18.79
O      -3.87       8.34      19.85
C       0.01       8.40      16.19
O      -2.15       9.75      19.72
C      -3.34       9.47      20.10
