9

Cd       7.63       7.09       6.15
C       5.04       8.27       6.45
O       5.83       8.69       5.57
O       9.19       8.71       6.38
C       6.91       4.34       6.66
O       7.86       5.06       7.09
C      10.30       8.05       6.35
O       7.73       6.63       3.92
C       8.21       5.73       3.16
