18

Al       0.00       5.35      16.11
O       1.66       5.90      16.72
O       0.53       5.49      14.30
Al       3.30       5.42      16.04
O       2.79       5.50      14.17
O      -1.66       4.73      15.56
C       1.66       2.91      16.06
O      -0.53       7.16      15.96
O       3.81       7.28      15.96
C       1.62       5.49      13.64
C      -1.66       5.39      18.55
O      -0.53       5.30      17.97
O       3.80       5.37      17.96
O       0.53       3.49      16.16
O       2.80       3.49      16.09
H       1.72       5.87      17.70
C      -1.62       7.82      15.96
H      -1.72       3.76      15.59
