13

Li       4.14       2.45       4.15
C       3.52       5.15       3.45
C       1.28       1.88       3.79
Zn       1.72       4.12       5.56
C       0.71       6.07       7.22
O       4.06       4.04       3.19
O       2.62       5.38       4.34
O       0.26       5.18       6.42
C       3.54       2.30       6.87
O       4.43       2.45       6.00
O       2.47       3.00       7.00
O       2.50       1.57       3.86
O       0.68       2.83       4.39
