13

O       2.84       5.25      16.65
Li       2.55       5.22      14.81
O       0.90       4.65      17.66
O       0.90       6.13      14.52
Zn       0.12       3.56      16.22
O       2.48       3.62      13.84
O      -0.91       4.85      15.05
O       1.02       2.31      15.00
C      -0.89       1.60      17.89
C       1.95       5.38      17.53
O      -1.33       2.53      17.12
C      -0.31       5.81      14.45
C       1.92       2.52      14.11
