13

Li       3.87      10.11       6.51
C       4.46       9.95       3.79
Zn       6.30      11.76       5.10
C       6.73       9.52       6.87
O       3.58      10.08       4.67
O       5.52      10.68       3.66
C       4.49      12.81       7.21
O       5.51       9.20       6.80
O       7.33      10.48       6.27
O       3.94      11.71       7.47
O       5.40      13.02       6.32
O       7.75      12.80       4.20
C       7.31      13.73       3.43
