60

Pr       0.69       1.20      23.78
C      -3.07       0.35      34.78
O       2.06      -0.47      22.14
O       3.12       0.58      23.74
O      -1.11       0.09      22.70
Pr       1.39       0.00      19.81
Pr      -0.69       1.20      27.74
Pr      -1.39       0.00      31.70
O      -0.62       2.02      30.07
O      -2.06       2.41      31.66
O       0.48      -1.00      30.63
O      -2.06       0.47      34.03
C       1.83       2.48      26.85
O      -3.12      -0.58      11.85
O       1.44       1.55      26.10
O       1.06       2.99      27.70
O      -0.63      -0.91      26.67
O       0.62      -2.02      18.18
O       2.06      -2.41      19.78
O      -0.48       1.00      18.74
O       2.06       0.47      17.49
Pr      -0.69      -1.20      11.89
O       1.11      -0.09      10.82
O      -1.44       1.55      25.41
O      -1.06       2.99      23.82
O       0.63      -0.91      24.85
O      -0.62      -2.02      33.34
O      -2.06      -2.41      31.74
O       0.48       1.00      32.77
O      -2.06      -0.47      29.38
O      -3.12       0.58      27.78
O       1.11       0.09      28.81
O       1.44      -1.55      13.52
O       1.06      -2.99      11.93
O      -1.44      -1.55      14.22
O       0.62       2.02      21.45
O       2.06       2.41      19.85
O      -0.48      -1.00      20.89
O      -0.63       0.91      12.96
Pr       0.69      -1.20      15.85
O      -1.06      -2.99      15.81
C       3.07       0.35      16.74
O       0.63       0.91      14.78
C      -1.83       2.48      24.67
C      -1.23      -2.83      32.59
C      -3.07      -0.35      28.63
C      -1.28       0.74      17.83
C       1.83      -2.48      12.78
C       1.23       2.83      20.70
C       1.28       0.74      33.68
C       3.07      -0.35      22.89
C      -1.28      -0.74      21.80
C      -1.83      -2.48      14.96
C       0.00       1.48      13.87
C       1.28      -0.74      29.72
O       3.12      -0.58      15.89
C      -1.23       2.83      30.81
O      -1.11      -0.09      16.92
C       1.23      -2.83      18.92
C       0.00      -1.48      25.76
