272

C       0.55      15.31       7.60
C       0.36      15.64       6.22
C       0.30      14.67       5.18
C       0.41      13.30       5.53
C       0.60      12.91       6.87
C       0.69      13.92       7.86
C       0.60       0.58       8.66
C       0.71       1.98       8.39
C       0.77       2.96       9.40
C       0.72       2.57      10.75
C       0.63       1.20      11.10
C       0.56       0.25      10.06
C       0.45       0.40      39.04
C       0.13       0.24      37.66
C       1.10       0.19      36.62
C       2.46       0.29      36.97
C       2.85       0.45      38.32
C       1.85       0.52      39.31
C      15.18       0.43      40.11
C      13.78       0.53      39.84
C      12.80       0.57      40.85
C      13.20       0.51      42.20
C      14.56       0.42      42.55
C      15.52       0.37      41.50
C      15.45      15.31      55.85
C      15.64      15.63      57.24
C      15.69      14.65      58.27
C      15.60      13.29      57.92
C      15.40      12.91      56.57
C      15.32      13.91      55.58
C      15.41       0.58      54.79
C      15.29       1.98      55.07
C      15.24       2.96      54.06
C      15.32       2.57      52.71
C      15.42       1.21      52.36
C      15.48       0.25      53.40
C      15.62       0.44      24.41
C       0.23       0.34      25.80
C      14.97       0.34      26.84
C      13.61       0.45      26.49
C      13.22       0.54      25.13
C      14.22       0.56      24.14
C       0.89       0.45      23.35
C       2.29       0.57      23.62
C       3.27       0.59      22.60
C       2.88       0.49      21.25
C       1.52       0.39      20.91
C       0.56       0.36      21.95
C       0.50       0.01      14.57
C      15.34      14.88      15.32
C      15.24      14.98      16.75
C       0.31       0.22      17.45
C       1.17       1.06      16.70
C       1.27       0.95      15.30
C      13.63      13.19      16.71
C      13.72      13.11      15.31
C      12.98      12.20      14.56
C       0.65      15.60      13.18
C       0.21       0.39      18.84
C       0.06       0.27      46.01
C       0.95      15.16      46.75
C       0.87      15.03      48.17
C      15.59       0.04      48.89
C      14.70       0.86      48.15
C      14.79       0.98      46.75
C       2.75      13.53      48.11
C       2.83      13.65      46.71
C       3.77      12.98      45.95
C       0.17       0.45      44.62
C      15.43      15.64      50.27
C       0.28       0.10       1.74
C       1.43       0.16       0.90
C       1.32       0.15      62.32
C       0.03       0.09      61.72
C      14.61      15.71      62.56
C      14.73      15.71       1.12
C       3.71       0.33      62.17
C       3.82       0.33       0.73
C       5.04       0.42       1.39
C       0.36       0.26       3.13
C      15.55       0.20      60.33
C       0.01       0.25      33.16
C      15.57       1.43      32.39
C       0.03       1.43      30.97
C       0.36       0.21      30.30
C       0.53      14.76      31.08
C       0.35      14.77      32.48
C      15.28       3.79      30.96
C      15.12       3.79      32.36
C      14.83       4.94      33.08
C      15.52       0.21      34.55
C       0.56       0.15      28.91
C       0.96       9.43       8.24
C       1.27       8.70       9.42
C       1.36       7.27       9.43
C       1.05       6.54       8.23
C       0.78       7.29       7.06
C       0.74       8.69       7.06
C       2.06       7.40      11.74
C       1.91       8.80      11.74
C       2.19       9.60      12.84
C       0.90      10.85       8.23
C       0.94       5.13       8.12
C       6.33       0.78      39.69
C       7.06       1.09      40.87
C       8.49       1.17      40.88
C       9.22       0.87      39.69
C       8.48       0.61      38.51
C       7.07       0.57      38.51
C       8.36       1.86      43.20
C       6.96       1.71      43.20
C       6.17       1.99      44.30
C       4.92       0.73      39.69
C      10.64       0.77      39.57
C      15.02       9.43      55.21
C      14.69       8.69      54.04
C      14.61       7.26      54.04
C      14.93       6.54      55.23
C      15.21       7.29      56.40
C      15.25       8.69      56.39
C      13.88       7.38      51.73
C      14.02       8.78      51.73
C      13.72       9.57      50.63
C      15.08      10.84      55.21
C      15.04       5.12      55.35
C       9.74       0.85      23.75
C       9.00       1.13      22.57
C       7.58       1.21      22.56
C       6.85       0.93      23.76
C       7.60       0.69      24.94
C       9.00       0.66      24.94
C       7.70       1.86      20.23
C       9.10       1.72      20.24
C       9.89       1.99      19.13
C      11.15       0.79      23.76
C       5.43       0.82      23.89
H       0.21       0.89       5.93
H       0.44      14.99      10.35
H       1.22      12.19       4.23
H      15.60       3.80      11.92
H       0.89      13.60       8.81
H       0.80       2.31       7.43
H      14.88       0.09      37.37
H       0.77       0.24      41.80
H       3.58       1.13      35.69
H      11.96      15.37      43.36
H       2.17       0.70      40.26
H      13.45       0.64      38.88
H       0.08       0.88      57.53
H      15.63      15.00      53.10
H      14.79      12.18      59.22
H       0.46       3.82      51.57
H      15.11      13.60      54.64
H      15.17       2.30      56.03
H       1.19       0.23      26.10
H      15.31       0.21      21.66
H      12.50       1.38      27.72
H       4.12      15.32      20.13
H      13.90       0.69      23.18
H       2.62       0.70      24.57
H       1.92       1.57      14.81
H       1.75       1.76      17.17
H      14.29      14.12      18.34
H      11.23      12.70      15.08
H       0.43      14.73      12.76
H      15.04       0.58      19.24
H      14.14       1.60      46.27
H      13.97       1.39      48.64
H       1.79      14.12      49.75
H       3.37      11.19      46.43
H       1.05       0.27      44.19
H      15.29      14.73      50.67
H      13.88      15.69       1.68
H      13.67      15.67      62.16
H       2.45       0.27      60.63
H       5.92      14.64       0.64
H       1.03       0.90       3.47
H      14.78       0.75      60.03
H       0.47      13.89      32.99
H       0.77      13.87      30.63
H      15.70       2.68      29.35
H       0.58       6.02      32.57
H      14.79       0.78      34.90
H       1.26      15.24      28.58
H       0.51       9.16       6.18
H       0.56       6.81       6.18
H       2.00       5.76      10.65
H       4.01       9.13      13.11
H       1.04      11.35       9.11
H       0.79       4.71       7.19
H       6.60       0.36      37.63
H       8.95       0.41      37.62
H      10.00       1.80      42.10
H       6.60       3.81      44.55
H       4.41       0.86      40.57
H      11.05       0.62      38.64
H      15.49       9.17      57.27
H      15.43       6.81      57.28
H      13.96       5.75      52.83
H      11.90       9.09      50.38
H      14.93      11.34      54.33
H      15.19       4.71      56.27
H       9.47       0.46      25.83
H       7.12       0.50      25.83
H       6.06       1.82      21.33
H       9.43       3.80      18.85
H      11.65       0.89      22.87
H       5.02       0.70      24.81
N       0.62       0.94      12.42
N       0.89       4.29       9.17
N       0.69      11.58       7.12
N       0.11      14.94       3.88
N      14.83       0.39      43.86
N      11.47       0.70      40.62
N       4.18       0.54      38.56
N       0.83       0.03      35.32
N      15.50       0.95      51.04
N      15.11       4.29      54.29
N      15.30      11.58      56.33
N       0.18      14.93      59.57
N       1.25       0.30      19.60
N       4.60       0.72      22.83
N      11.89       0.63      24.88
N      15.23       0.30      28.15
N      14.38      14.11      17.38
N      14.58      13.96      14.69
N       1.79      14.22      48.79
N       1.92      14.46      46.10
N       2.48       0.25      61.60
N       2.67       0.25       1.44
N      15.59       2.63      30.32
N      15.27       2.60      33.00
N       1.79       6.71      10.60
N       1.55       9.37      10.57
N       9.06       1.60      42.06
N       6.39       1.35      42.02
N      14.16       6.69      52.87
N      14.40       9.36      52.89
N       7.00       1.61      21.38
N       9.67       1.38      21.41
O       0.31      12.35       4.56
O       0.80       3.51      11.74
O       3.42       0.21      36.00
O      12.25       0.58      43.19
O      15.70      12.33      58.88
O      15.25       3.52      51.72
O      12.65       0.44      27.46
O       3.82       0.53      20.27
O      12.82      12.36      17.41
O      13.51      11.71      13.57
O      11.75      12.26      14.51
O       3.64      12.77      48.80
O       4.23      13.56      44.97
O       3.77      11.74      45.86
O       4.81       0.44      61.38
O       5.08       1.05       2.44
O       5.90      15.25       1.27
O      15.13       4.93      30.23
O      14.09       4.84      34.05
O      15.62       5.88      33.13
O       2.47       6.75      12.85
O       1.49      10.58      13.03
O       3.34       9.70      13.28
O       9.02       2.27      44.31
O       5.21       1.26      44.49
O       6.05       3.14      44.72
O      13.45       6.72      50.63
O      14.41      10.56      50.43
O      12.56       9.66      50.21
O       7.04       2.25      19.12
O      10.86       1.28      18.95
O      10.00       3.14      18.69
