24

Gd       0.34       4.34      10.16
Gd      -3.29       4.52       8.26
C      -0.86       3.34      12.43
C      -1.60       2.84      13.62
C      -0.86       1.02       8.80
C      -1.34       6.02       4.80
C      -2.09       5.52       5.98
C      -2.09       7.85       9.61
C       3.44       5.77      10.64
C      -1.70       2.22       8.58
C       2.35       3.10       7.77
C      -1.25       6.65       9.84
O       3.96       5.77       9.47
O       0.02       6.70       9.76
O       2.30       5.28      10.91
O      -1.84       5.50      10.04
O      -0.02       4.31      12.53
O      -2.97       2.17       8.65
O      -2.93       4.55       5.89
O      -5.25       3.58       7.50
O       1.82       3.10       8.94
O      -1.11       3.36       8.37
O      -1.89       6.08       7.12
O      -1.06       2.78      11.29
