68

H       5.87      17.15       8.26
H       6.11      14.79       7.96
H       6.40       9.89       6.69
H       7.40       9.99       5.22
H       5.09       8.14       4.84
H       6.83       7.84       4.63
H       7.04       7.42       7.10
H       5.80       6.36       6.35
H       5.29       7.79       7.31
H       4.96       7.94       1.73
H       4.78       9.46       0.86
H       3.48       9.04       3.63
H       3.11      10.28       2.41
H       2.35       8.41       0.84
H       1.38       8.51       2.37
H       2.64       7.24       2.16
H       7.53       9.63       0.04
H       8.28      10.86       1.11
H       7.64      11.15      -1.89
H       8.22      12.50      -0.83
H      10.29      11.19      -0.29
H      10.11      11.49      -2.05
H       9.72       9.86      -1.38
H       7.28      19.20       3.00
H       7.31      19.19       4.76
H       5.26      20.42       2.83
H       4.89      20.26       4.58
H       7.01      21.64       5.03
H       5.68      22.50       4.18
H       7.08      21.93       3.23
C       6.00      12.58       6.86
C       5.82      11.42       4.10
C       5.88      10.87       2.80
C       6.16      11.71       1.71
C       6.25      13.08       1.89
C       6.16      13.68       3.17
C       6.01      12.83       4.32
C       6.21      15.11       3.32
C       6.10      15.69       4.63
C       6.09      14.83       5.77
C       6.05      13.42       5.62
C       6.00      17.11       4.85
C       5.85      17.60       6.18
C       5.95      16.75       7.26
C       6.08      15.39       7.07
C       6.30      15.98       2.10
C       6.38       9.74       5.60
C       6.07       8.25       5.32
C       6.05       7.41       6.60
C       4.79       9.03       1.87
C       3.42       9.23       2.54
C       2.38       8.29       1.94
C       7.61      10.71       0.24
C       8.23      11.40      -0.98
C       9.68      10.95      -1.19
C       6.63      19.16       3.88
C       5.70      20.37       3.84
C       6.42      21.69       4.09
O       7.14      12.28       7.44
O       4.83      12.43       7.42
O       5.17      16.34       1.55
O       7.48      16.19       1.57
O       5.36      10.59       5.12
O       5.87       9.49       2.67
O       6.30      11.21       0.43
O       5.85      17.98       3.77
F       6.46      13.80       0.76
F       5.59      18.90       6.43
