1056

H       7.14      17.83      50.36
H       8.46      16.24      46.94
H       9.62      14.71      53.08
H       5.10      18.32      44.18
H       7.51      14.02      48.62
H       4.79      16.75      48.92
H      12.36      20.18      22.41
H      11.05      21.78      18.99
H       9.89      23.30      25.13
H      14.40      19.70      16.22
H      11.99      23.99      20.68
H      14.72      21.25      20.97
H      30.55      36.00       8.41
H      32.16      37.32       4.99
H      33.73      38.39      11.13
H      29.71      33.84       2.46
H      34.35      36.31       6.64
H      31.51      33.64       6.93
H      28.27       2.02      36.37
H      26.66       0.69      32.95
H      25.09      38.95      39.08
H      29.12       4.17      30.42
H      24.48       1.71      34.60
H      27.33       4.37      34.88
H      12.49      17.72      32.95
H      10.89      16.42      36.37
H      10.45      14.33      30.21
H      14.00      18.88      39.11
H      12.01      14.05      34.95
H      14.71      16.78      34.66
H       7.02      20.28       5.00
H       8.62      21.58       8.42
H       9.05      23.68       2.25
H       5.51      19.11      11.16
H       7.49      23.94       7.00
H       4.80      21.22       6.71
H      28.18      35.99      18.95
H      26.84      37.45      22.48
H      24.75      38.05      16.28
H      27.73      33.70      25.39
H      24.55      36.43      21.01
H      27.38      33.76      20.56
H      30.63       2.01      46.91
H      31.97       0.55      50.44
H      34.07      39.25      44.24
H      31.09       4.31      53.34
H      34.27       1.57      48.96
H      31.44       4.24      48.51
H      32.08      20.11       5.38
H      30.77      21.77       8.78
H      29.69      23.26       2.63
H      34.22      19.29      11.32
H      31.78      23.93       7.10
H      34.44      21.07       6.84
H      26.73      17.88      33.33
H      28.05      16.23      36.73
H      29.13      14.74      30.58
H      24.58      18.71      39.26
H      27.04      14.06      35.05
H      24.38      16.93      34.80
H       8.58       2.01      47.22
H       7.04       0.66      50.72
H       4.80       1.19      44.31
H       9.56       4.14      53.19
H       4.87       1.56      49.15
H       7.71       4.31      48.73
H      10.93      35.99      19.27
H      12.46      37.34      22.77
H      14.70      36.80      16.36
H       9.94      33.85      25.23
H      14.64      36.44      21.19
H      11.79      33.69      20.79
H      26.69      20.24      22.78
H      28.22      21.57      19.26
H      28.76      23.66      25.45
H      24.52      20.61      16.31
H      27.19      23.85      20.70
H      24.49      21.00      21.13
H      32.12      17.77      50.73
H      30.60      16.44      47.22
H      30.06      14.34      53.40
H      34.29      17.40      44.26
H      31.63      14.16      48.65
H      34.32      17.01      49.08
H      11.05       2.04      36.76
H      12.39       0.49      33.26
H      14.58      38.91      39.22
H      11.53       4.23      30.32
H      14.69       1.41      34.75
H      11.91       4.22      35.15
H       8.45      35.97       8.80
H       7.11      37.51       5.30
H       4.92      38.42      11.26
H       7.96      33.77       2.37
H       4.81      36.60       6.80
H       7.58      33.79       7.20
H       9.58      14.64      40.83
H       9.23      21.66      44.20
H       9.13      20.17      45.17
H       6.73      21.69      44.03
H       7.28      21.73      45.72
H       6.66      20.22      45.03
H       9.34      17.57      45.00
H      10.44      15.64      38.67
H       9.88      23.38      12.90
H      10.31      16.35      16.25
H      10.36      17.85      17.22
H      12.81      16.35      16.15
H      12.22      16.31      17.82
H      12.84      17.82      17.15
H      10.16      20.44      17.05
H       9.04      22.37      10.73
H      33.73      38.64      54.90
H      26.70      38.43       2.38
H      28.21      38.32       3.32
H      26.61      35.93       2.28
H      26.63      36.52       3.96
H      28.11      35.84       3.24
H      30.81      38.31       3.13
H      32.80       0.35      52.80
H      25.10      38.73      26.92
H      32.10      38.85      30.35
H      30.60      39.02      31.29
H      32.24       2.03      30.16
H      32.21       1.50      31.85
H      30.75       2.18      31.11
H      27.99      39.00      31.09
H      26.03      37.68      24.83
H      29.48      23.32      14.82
H      29.65      16.33      11.37
H      29.75      17.84      10.43
H      32.15      16.22      11.44
H      31.54      16.25       9.77
H      32.23      17.72      10.49
H      29.77      20.44      10.65
H      28.47      22.37      16.91
H      29.29      14.71      42.79
H      29.19      21.68      39.30
H      29.04      20.17      38.37
H      26.70      21.82      39.47
H      27.25      21.78      37.78
H      26.56      20.32      38.52
H      29.06      17.56      38.59
H      30.32      15.65      44.88
H       5.42      38.76       0.80
H      12.49      38.85      53.40
H      10.99      38.93      52.44
H      12.60       2.03      53.41
H      12.60       1.38      51.76
H      11.12       2.10      52.44
H       8.38      38.99      52.60
H       6.33      37.80       2.94
H      14.07      38.52      28.78
H       7.03      38.49      25.43
H       8.53      38.37      24.48
H       6.89      36.00      25.49
H       6.91      36.61      23.82
H       8.38      35.89      24.52
H      11.14      38.34      24.64
H      13.16       0.19      30.91
H      29.24      34.30      12.92
H      28.93       2.09      16.11
H      28.85       0.63      17.11
H      26.43       2.12      15.97
H      27.00       2.19      17.65
H      26.37       0.67      16.99
H      29.02      37.34      17.00
H      30.10      35.25      10.72
H      29.54       3.72      40.90
H      29.91      35.91      44.05
H      29.95      37.38      45.05
H      32.41      35.91      43.97
H      31.80      35.83      45.64
H      32.43      37.36      45.00
H      29.80       0.66      44.95
H      28.71       2.78      38.69
H      14.13      18.91      26.90
H       7.07      18.44      30.17
H       8.55      18.39      31.15
H       7.08      15.94      30.06
H       7.02      16.53      31.74
H       8.54      15.91      31.06
H      11.14      18.58      31.01
H      13.15      19.77      24.73
H       5.39      19.13      54.84
H      12.44      19.55       2.22
H      10.96      19.63       3.20
H      12.45      22.04       2.05
H      12.50      21.50       3.74
H      10.98      22.11       3.05
H       8.37      19.42       3.06
H       6.37      18.26      52.67
H       9.86       3.68      42.73
H       9.94      35.92      39.46
H      10.06      37.41      38.50
H      12.44      35.79      39.54
H      11.84      35.80      37.87
H      12.53      37.28      38.57
H      10.10       0.69      38.64
H       8.85       2.80      44.86
H       9.60      34.34      14.80
H       9.60       2.09      11.50
H       9.43       0.60      10.54
H       7.11       2.25      11.67
H       7.65       2.23       9.98
H       6.96       0.77      10.69
H       9.41      37.31      10.69
H      10.63      35.22      16.92
H      25.00      19.14      28.80
H      32.13      19.58      25.64
H      30.66      19.58      24.63
H      32.10      22.08      25.66
H      32.19      21.43      24.01
H      30.65      22.06      24.62
H      28.06      19.42      24.74
H      25.97      18.34      31.02
H      33.80      18.83       0.86
H      26.69      18.44      53.58
H      28.16      18.42      52.58
H      26.71      15.94      53.63
H      26.63      16.56      51.97
H      28.16      15.94      52.61
H      30.75      18.59      52.69
H      32.83      19.64       3.07
H       6.18       8.77      50.03
H      13.29      10.94      52.50
H      11.91      12.04      52.79
H      13.73      12.09      50.33
H      13.78      13.24      51.68
H      12.36      13.18      50.62
H       9.49      12.23      52.13
H       6.82       6.39      50.02
H      13.35      29.24      22.16
H       6.21      27.03      24.51
H       7.61      25.99      24.86
H       5.82      25.78      22.39
H       5.79      24.69      23.79
H       7.22      24.75      22.74
H      10.02      25.78      24.19
H      12.71      31.62      22.13
H       0.36      35.00       8.09
H      37.40       2.79      10.50
H      36.35       1.39      10.83
H      36.17       3.19       8.36
H      35.07       3.21       9.75
H      35.13       1.79       8.70
H      36.16      38.30      10.11
H       2.73      35.67       8.08
H      19.15       3.00      35.97
H      21.39      35.24      38.48
H      22.49      36.61      38.76
H      22.52      34.78      36.30
H      23.68      34.75      37.65
H      23.60      36.16      36.58
H      22.66      39.02      38.05
H      16.78       2.33      35.98
H      13.48       8.58      33.64
H       6.40      10.91      31.19
H       7.84      11.88      30.77
H       6.08      12.31      33.23
H       6.08      13.31      31.76
H       7.52      13.27      32.81
H      10.22      12.06      31.52
H      12.80       6.22      33.67
H       6.04      29.42       5.76
H      13.09      27.11       3.21
H      11.67      26.12       2.82
H      13.45      25.77       5.28
H      13.45      24.73       3.84
H      12.02      24.78       4.89
H       9.27      25.94       3.56
H       6.71      31.78       5.78
H      19.07      34.96      19.80
H      21.29       2.71      17.21
H      22.26       1.28      16.79
H      22.73       3.09      19.21
H      23.69       3.07      17.72
H      23.69       1.65      18.79
H      22.50      38.24      17.62
H      16.70      35.62      19.87
H       0.44       3.03      47.78
H      37.53      35.29      45.16
H      36.55      36.72      44.75
H      36.12      34.91      47.19
H      35.13      34.93      45.71
H      35.15      36.35      46.78
H      36.32      39.07      45.57
H       2.81       2.36      47.84
H      33.12      29.21       5.58
H      25.97      26.98       3.28
H      27.35      25.90       2.95
H      25.59      25.81       5.45
H      25.53      24.67       4.09
H      26.97      24.74       5.12
H      29.77      25.71       3.62
H      32.47      31.59       5.58
H      25.67       8.78      33.42
H      32.87      11.06      31.28
H      31.47      12.08      30.88
H      33.18      12.34      33.40
H      33.24      13.41      31.98
H      31.78      13.35      32.99
H      29.06      12.29      31.57
H      26.33       6.41      33.43
H      25.84      29.39      21.91
H      32.84      27.03      24.56
H      31.40      26.05      24.92
H      33.23      25.67      22.50
H      33.19      24.65      23.95
H      31.79      24.70      22.86
H      29.06      25.87      24.06
H      26.50      31.75      21.98
H      32.96       8.62      49.80
H      25.99      10.96      52.53
H      27.42      11.97      52.86
H      25.56      12.26      50.45
H      25.59      13.32      51.87
H      26.99      13.26      50.78
H      29.76      12.14      52.00
H      32.30       6.26      49.88
H      19.93      15.34      36.27
H      17.76      22.55      38.43
H      16.73      21.16      38.84
H      16.46      22.88      36.32
H      15.41      22.94      37.75
H      15.44      21.48      36.73
H      16.49      18.75      38.18
H      22.31      15.97      36.20
H      38.89      22.63       8.24
H       1.72      15.45      10.51
H       2.80      16.82      10.87
H       2.93      15.08       8.36
H       4.04      15.01       9.74
H       3.99      16.46       8.71
H       3.02      19.26      10.24
H      36.51      22.00       8.19
H      38.60      15.37      47.49
H       1.75      22.45      45.16
H       2.70      21.01      44.73
H       3.15      22.75      47.21
H       4.15      22.74      45.74
H       4.09      21.30      46.78
H       2.87      18.63      45.51
H      36.25      16.06      47.40
H      20.21      22.63      19.55
H      17.74      15.56      17.22
H      16.79      17.00      16.80
H      16.38      15.26      19.29
H      15.36      15.27      17.84
H      15.43      16.71      18.87
H      16.64      19.39      17.56
H      22.57      21.95      19.46
C       7.30      16.01      49.31
C       7.42      16.85      50.43
C       7.91      16.34      51.66
C       8.30      14.99      51.75
C       8.16      14.13      50.63
C       7.66      14.65      49.42
C       6.72      16.49      48.11
C       5.35      16.83      48.07
C       4.73      17.18      46.85
C       5.49      17.20      45.66
C       6.87      16.89      45.70
C       7.47      16.52      46.92
C      12.20      22.00      21.36
C      12.08      21.16      22.48
C      11.60      21.66      23.71
C      11.21      23.02      23.80
C      11.35      23.88      22.68
C      11.84      23.36      21.47
C      12.78      21.52      20.16
C      14.15      21.18      20.12
C      14.78      20.83      18.90
C      14.01      20.81      17.71
C      12.63      21.12      17.75
C      12.03      21.49      18.97
C      32.37      36.12       7.34
C      31.54      36.26       8.48
C      32.06      36.72       9.70
C      33.43      37.08       9.79
C      34.28      36.94       8.66
C      33.73      36.46       7.45
C      31.86      35.58       6.14
C      31.46      34.22       6.09
C      31.07      33.63       4.86
C      31.02      34.43       3.69
C      31.39      35.79       3.74
C      31.84      36.35       4.97
C      26.46       1.90      35.30
C      27.28       1.77      36.44
C      26.75       1.30      37.66
C      25.39       0.94      37.74
C      24.55       1.09      36.61
C      25.09       1.56      35.40
C      26.97       2.44      34.10
C      27.38       3.79      34.04
C      27.76       4.37      32.81
C      27.82       3.57      31.64
C      27.43       2.21      31.70
C      26.99       1.66      32.92
C      12.25      15.99      34.13
C      12.21      16.73      32.94
C      11.85      16.12      31.72
C      11.56      14.74      31.68
C      11.59      13.98      32.88
C      11.93      14.61      34.09
C      12.72      16.58      35.33
C      14.08      16.93      35.45
C      14.59      17.42      36.67
C      13.73      17.57      37.78
C      12.37      17.18      37.68
C      11.87      16.70      36.44
C       7.26      22.01       6.18
C       7.30      21.26       4.99
C       7.65      21.88       3.77
C       7.94      23.26       3.73
C       7.91      24.02       4.93
C       7.57      23.39       6.14
C       6.79      21.42       7.38
C       5.43      21.06       7.50
C       4.92      20.57       8.72
C       5.78      20.43       9.83
C       7.14      20.82       9.73
C       7.64      21.30       8.49
C      26.47      36.21      20.16
C      27.20      36.27      18.96
C      26.57      36.64      17.75
C      25.19      36.93      17.74
C      24.44      36.89      18.95
C      25.10      36.53      20.15
C      27.07      35.70      21.34
C      27.48      34.35      21.39
C      27.96      33.78      22.59
C      28.07      34.58      23.74
C      27.65      35.93      23.71
C      27.15      36.48      22.51
C      32.35       1.78      48.12
C      31.62       1.73      46.92
C      32.25       1.35      45.71
C      33.63       1.06      45.70
C      34.37       1.11      46.90
C      33.72       1.46      48.10
C      31.75       2.30      49.29
C      31.34       3.65      49.34
C      30.87       4.23      50.54
C      30.75       3.43      51.70
C      31.16       2.07      51.67
C      31.67       1.52      50.46
C      31.96      21.94       6.42
C      31.83      21.10       5.30
C      31.36      21.61       4.07
C      30.99      22.98       3.97
C      31.14      23.84       5.09
C      31.62      23.31       6.31
C      32.51      21.44       7.63
C      33.86      21.03       7.69
C      34.44      20.64       8.92
C      33.65      20.60      10.08
C      32.29      20.99      10.03
C      31.74      21.44       8.81
C      26.85      16.05      34.37
C      26.98      16.89      33.25
C      27.46      16.38      32.02
C      27.83      15.02      31.92
C      27.68      14.16      33.04
C      27.19      14.69      34.26
C      26.30      16.55      35.58
C      24.96      16.97      35.64
C      24.38      17.36      36.87
C      25.17      17.40      38.03
C      26.53      17.01      37.98
C      27.08      16.56      36.76
C       6.81       1.83      48.36
C       7.59       1.73      47.19
C       7.03       1.24      45.99
C       5.67       0.86      45.96
C       4.87       0.99      47.11
C       5.45       1.45      48.31
C       7.36       2.39      49.54
C       7.77       3.73      49.58
C       8.18       4.33      50.80
C       8.24       3.55      51.97
C       7.84       2.19      51.94
C       7.38       1.63      50.73
C      12.70      36.16      20.41
C      11.91      36.27      19.24
C      12.47      36.75      18.03
C      13.83      37.14      18.00
C      14.63      37.01      19.16
C      14.05      36.55      20.36
C      12.15      35.62      21.59
C      11.73      34.27      21.63
C      11.32      33.67      22.85
C      11.26      34.46      24.02
C      11.66      35.81      23.99
C      12.12      36.38      22.78
C      26.94      21.94      21.56
C      26.97      21.22      22.77
C      27.34      21.85      23.98
C      27.65      23.24      23.98
C      27.63      23.97      22.77
C      27.27      23.31      21.57
C      26.44      21.33      20.38
C      25.10      20.89      20.32
C      24.56      20.40      19.11
C      25.38      20.29      17.97
C      26.73      20.73      18.02
C      27.25      21.24      19.23
C      31.88      16.07      49.51
C      31.84      16.79      50.72
C      31.47      16.15      51.93
C      31.17      14.77      51.93
C      31.19      14.04      50.71
C      31.55      14.70      49.52
C      32.37      16.68      48.33
C      33.71      17.12      48.27
C      34.25      17.61      47.06
C      33.43      17.72      45.92
C      32.09      17.29      45.97
C      31.57      16.77      47.18
C      12.77       1.74      35.57
C      12.02       1.71      36.77
C      12.60       1.27      37.97
C      13.96       0.90      38.00
C      14.74       0.97      36.82
C      14.12       1.35      35.60
C      12.20       2.27      34.39
C      11.80       3.62      34.33
C      11.32       4.18      33.12
C      11.20       3.37      31.98
C      11.60       2.01      32.02
C      12.10       1.47      33.23
C       6.73      36.27       7.62
C       7.48      36.30       8.81
C       6.91      36.75      10.02
C       5.54      37.12      10.04
C       4.77      37.05       8.86
C       5.38      36.67       7.65
C       7.30      35.74       6.43
C       7.69      34.39       6.37
C       8.17      33.82       5.17
C       8.29      34.63       4.02
C       7.90      35.99       4.06
C       7.40      36.53       5.27
C       9.20      17.08      43.01
C       9.61      15.60      41.19
C      10.15      16.66      40.43
C       9.71      18.17      42.26
C       9.76      19.48      42.73
C       8.66      20.74      44.36
C       7.24      21.12      44.82
C       8.75      17.18      44.30
C      10.69      16.45      39.19
C      10.30      20.93      15.06
C       9.87      22.42      13.25
C       9.35      21.35      12.49
C       9.82      19.83      14.30
C       9.80      18.52      14.76
C      10.86      17.28      16.43
C      12.28      16.92      16.92
C      10.75      20.83      16.35
C       8.81      21.56      11.24
C      31.26      38.22       1.13
C      32.77      38.68      55.25
C      31.73      39.28      54.51
C      30.19      38.80       0.40
C      28.88      38.86       0.86
C      27.61      37.84       2.54
C      27.21      36.44       3.04
C      31.14      37.72       2.40
C      31.95       0.54      53.28
C      27.55      39.09      29.09
C      26.05      38.66      27.28
C      27.09      38.04      26.56
C      28.62      38.49      28.37
C      29.92      38.40      28.85
C      31.20       0.15      30.49
C      31.63       1.56      30.93
C      27.67       0.28      30.36
C      26.87      37.48      25.32
C      29.87      20.87      12.65
C      29.43      22.36      14.45
C      28.85      21.31      15.19
C      29.31      19.79      13.38
C      29.24      18.48      12.90
C      30.24      17.23      11.20
C      31.63      16.83      10.69
C      30.36      20.76      11.37
C      28.29      21.52      16.43
C      28.95      17.14      40.59
C      29.36      15.66      42.42
C      29.96      16.70      43.14
C      29.54      18.21      41.31
C      29.63      19.51      40.82
C      28.59      20.78      39.16
C      27.18      21.20      38.70
C      28.46      17.24      39.32
C      30.52      16.49      44.39
C       7.92      39.13      54.59
C       6.38      38.71       0.46
C       7.41      38.12       1.23
C       8.98      38.56      55.35
C      10.30      38.49      54.91
C      11.59       0.12      53.21
C      12.00       1.50      52.67
C       8.06       0.29      53.32
C       7.17      37.57       2.47
C      11.58      38.19      26.64
C      13.11      38.59      28.43
C      12.08      39.18      29.19
C      10.52      38.77      27.39
C       9.21      38.86      26.94
C       7.93      37.89      25.25
C       7.50      36.50      24.74
C      11.45      37.72      25.36
C      12.32       0.42      30.43
C      28.87      36.80      15.03
C      29.27      35.26      13.25
C      29.83      36.30      12.47
C      29.39      37.87      14.25
C      29.45      39.19      14.69
C      28.36       1.18      16.30
C      26.94       1.56      16.75
C      28.42      36.94      16.32
C      30.37      36.06      11.23
C      29.95       1.20      42.98
C      29.52       2.75      41.22
C      28.99       1.72      40.43
C      29.44       0.14      42.19
C      29.41      38.12      42.61
C      30.46      36.83      44.25
C      31.87      36.46      44.75
C      30.40       1.06      44.27
C      28.44       1.96      39.19
C      11.65      18.46      29.03
C      13.17      18.92      27.24
C      12.11      19.44      26.47
C      10.57      18.96      28.26
C       9.25      18.97      28.70
C       7.99      17.89      30.35
C       7.63      16.47      30.83
C      11.54      17.99      30.31
C      12.33      20.00      25.23
C       7.85      19.54       1.08
C       6.35      19.11      55.18
C       7.40      18.57      54.42
C       8.94      19.03       0.32
C      10.25      19.00       0.77
C      11.52      20.11       2.39
C      11.89      21.54       2.84
C       7.97      20.01       2.36
C       7.19      18.01      53.18
C      10.22       1.17      40.63
C       9.80       2.72      42.40
C       9.18       1.70      43.15
C       9.63       0.12      41.38
C       9.54      38.12      40.95
C      10.54      36.82      39.28
C      11.93      36.40      38.78
C      10.71       1.02      39.36
C       8.62       1.95      44.38
C       9.29      36.84      12.67
C       9.68      35.30      14.45
C      10.31      36.31      15.20
C       9.90      37.88      13.42
C      10.02      39.19      12.96
C       8.98       1.20      11.34
C       7.58       1.64      10.89
C       8.80      36.98      11.40
C      10.87      36.05      16.44
C      27.52      19.58      26.71
C      25.97      19.14      28.47
C      27.02      18.63      29.27
C      28.59      19.10      27.50
C      29.92      19.09      27.09
C      31.20      20.12      25.42
C      31.56      21.52      24.89
C      27.65      20.02      25.42
C      26.78      18.08      30.51
C      31.29      18.42      54.66
C      32.83      18.85       0.53
C      31.79      19.37       1.32
C      30.22      18.91      55.45
C      28.90      18.94      55.03
C      27.62      17.89      53.37
C      27.25      16.49      52.86
C      31.16      17.99      53.37
C      32.02      19.91       2.56
C       8.70      10.59      51.15
C       7.12       8.96      50.40
C       8.03       7.92      50.67
C       9.64       9.56      51.43
C      10.92       9.79      51.93
C      12.49      11.52      52.02
C      13.13      12.58      51.10
C       8.90      11.94      51.39
C       7.69       6.60      50.46
C      10.81      27.41      23.20
C      12.41      29.05      22.50
C      11.48      30.09      22.74
C       9.86      28.44      23.46
C       8.57      28.22      23.92
C       7.03      26.46      24.06
C       6.43      25.35      23.19
C      10.60      26.06      23.44
C      11.83      31.41      22.54
C      37.81      37.51       9.16
C       0.16      35.93       8.44
C       1.18      36.86       8.71
C      38.83      38.46       9.43
C      38.59       0.43       9.91
C      36.83       1.97      10.04
C      35.73       2.58       9.15
C      36.46      37.70       9.39
C       2.51      36.54       8.51
C      21.01       0.51      37.10
C      19.35       2.07      36.35
C      18.32       1.15      36.64
C      19.99      38.88      37.40
C      20.23      37.61      37.91
C      21.96      36.03      37.99
C      23.01      35.38      37.07
C      22.36       0.32      37.33
C      17.00       1.47      36.44
C      10.98      10.44      32.54
C      12.53       8.78      33.30
C      11.58       7.77      33.08
C      10.00       9.43      32.32
C       8.72       9.68      31.84
C       7.24      11.48      31.60
C       6.69      12.67      32.41
C      10.82      11.79      32.25
C      11.89       6.44      33.31
C       8.51      27.56       4.59
C       6.97      29.22       5.39
C       7.92      30.23       5.16
C       9.48      28.57       4.36
C      10.76      28.33       3.85
C      12.26      26.54       3.64
C      12.83      25.38       4.47
C       8.67      26.22       4.30
C       7.61      31.56       5.40
C      20.89      37.46      18.65
C      19.25      35.90      19.44
C      18.22      36.83      19.21
C      19.87      38.42      18.42
C      20.10       0.39      17.93
C      21.87       1.88      17.62
C      23.08       2.46      18.39
C      22.23      37.63      18.36
C      16.90      36.50      19.45
C      37.93       0.54      46.61
C       0.25       2.09      47.41
C       1.28       1.16      47.18
C      38.95      38.89      46.37
C      38.72      37.62      45.86
C      36.95      36.11      45.58
C      35.76      35.54      46.37
C      36.59       0.36      46.31
C       2.60       1.49      47.41
C      30.58      27.36       4.55
C      32.18      29.02       5.24
C      31.26      30.05       4.97
C      29.64      28.39       4.28
C      28.35      28.15       3.80
C      26.79      26.41       3.74
C      26.18      25.33       4.66
C      30.38      26.01       4.34
C      31.59      31.37       5.16
C      28.24      10.64      32.49
C      26.63       8.98      33.11
C      27.56       7.95      32.88
C      29.20       9.61      32.25
C      30.50       9.85      31.82
C      32.03      11.63      31.70
C      32.59      12.76      32.58
C      28.44      11.99      32.29
C      27.22       6.63      33.06
C      28.29      27.50      23.06
C      26.77      29.18      22.28
C      27.71      30.19      22.56
C      29.26      28.51      23.34
C      30.52      28.26      23.86
C      32.01      26.46      24.12
C      32.60      25.29      23.30
C      28.44      26.15      23.34
C      27.40      31.52      22.35
C      30.53      10.50      51.01
C      32.04       8.83      50.19
C      31.11       7.82      50.49
C      29.57       9.49      51.30
C      28.31       9.75      51.85
C      26.80      11.53      52.07
C      26.20      12.67      51.24
C      30.38      11.85      51.29
C      31.42       6.49      50.27
C      18.12      17.93      37.22
C      19.75      16.30      36.58
C      20.79      17.22      36.80
C      19.16      18.88      37.45
C      18.94      20.18      37.88
C      17.18      21.72      38.01
C      16.05      22.30      37.14
C      16.77      18.15      37.45
C      22.11      16.86      36.60
C       1.39      20.07       9.27
C      39.07      21.68       8.58
C      38.03      20.77       8.82
C       0.35      19.13       9.52
C       0.57      17.83       9.98
C       2.30      16.26      10.06
C       3.39      15.66       9.16
C       2.73      19.85       9.50
C      36.71      21.12       8.61
C       1.21      17.86      46.47
C      38.82      16.32      47.16
C      37.82      17.29      46.95
C       0.21      18.86      46.25
C       0.49      20.14      45.80
C       2.31      21.60      45.57
C       3.51      22.14      46.38
C       2.56      18.01      46.23
C      36.49      16.99      47.14
C      18.30      20.15      18.52
C      19.99      21.69      19.22
C      20.99      20.72      19.00
C      19.29      19.15      18.29
C      19.02      17.87      17.83
C      17.19      16.41      17.63
C      16.01      15.88      18.46
C      16.94      20.00      18.27
C      22.32      21.02      19.19
N       7.54      16.85      44.56
N       3.41      17.31      46.89
N       8.28      12.81      50.67
N       7.96      17.08      52.76
N      11.96      21.16      16.61
N      16.09      20.69      18.94
N      11.22      25.20      22.73
N      11.55      20.93      24.81
N      31.42      36.48       2.61
N      30.83      32.33       4.76
N      35.60      37.05       8.69
N      31.33      36.80      10.81
N      27.40       1.52      30.57
N      28.01       5.67      32.71
N      23.23       0.97      36.64
N      27.48       1.22      38.76
N      11.63      17.22      38.77
N      15.91      17.53      36.72
N      11.48      12.66      32.92
N      11.89      16.79      30.57
N       7.88      20.77      10.82
N       3.60      20.46       8.77
N       8.02      25.34       4.98
N       7.62      21.21       2.62
N      27.70      36.63      24.84
N      28.20      32.47      22.69
N      23.12      36.98      19.01
N      27.22      36.60      16.60
N      31.11       1.38      52.79
N      30.63       5.53      50.64
N      35.69       1.01      46.97
N      31.60       1.40      44.55
N      31.60      21.03      11.16
N      35.74      20.38       9.02
N      31.03      25.16       5.05
N      31.28      20.87       2.98
N      27.22      16.98      39.11
N      23.08      17.62      36.97
N      27.79      12.84      32.99
N      27.53      17.12      30.93
N       7.80       1.52      53.08
N       8.43       5.63      50.89
N       3.57       0.75      47.01
N       7.73       1.16      44.86
N      11.70      36.49      25.13
N      11.07      32.37      22.94
N      15.94      37.25      19.05
N      11.77      36.84      16.91
N      27.43      20.68      16.90
N      23.26      20.16      18.99
N      27.75      25.29      22.69
N      27.30      21.22      25.13
N      31.38      17.32      44.85
N      35.56      17.85      46.94
N      31.07      12.72      50.64
N      31.51      16.79      53.09
N      11.53       1.31      30.90
N      11.09       5.49      33.00
N      16.04       0.74      36.90
N      11.93       1.31      39.12
N       7.97      36.69       2.94
N       8.40      32.51       5.05
N       3.46      37.28       8.95
N       7.57      36.71      11.16
N       9.17      15.85      42.44
N      10.17      17.89      41.01
N      10.31      22.17      14.50
N       9.36      20.12      13.05
N      32.49      38.19       0.57
N      30.49      39.30      55.08
N      26.32      39.15      28.52
N      28.32      37.99      27.14
N      29.91      22.10      13.22
N      28.82      20.08      14.61
N      28.89      15.91      41.18
N      30.02      17.92      42.55
N       6.68      39.17      55.13
N       8.66      38.09       0.68
N      12.82      38.13      27.19
N      10.84      39.24      28.63
N      28.83      35.56      14.49
N      29.86      37.55      13.01
N      29.97       2.46      42.46
N      28.98       0.46      40.96
N      12.90      18.46      28.49
N      10.87      19.43      27.02
N       6.61      19.56       0.52
N       8.64      18.56      54.98
N      10.28       2.42      41.17
N       9.13       0.46      42.61
N       9.21      35.60      13.22
N      10.39      37.55      14.65
N      26.26      19.58      27.23
N      28.27      18.64      28.75
N      32.55      18.41      55.19
N      30.54      19.37       0.79
N       7.49      10.23      50.65
N       9.24       8.28      51.17
N      12.03      27.78      22.74
N      10.26      29.73      23.21
N      38.19      36.29       8.68
N       0.81      38.08       9.19
N      20.63       1.71      36.59
N      18.70      39.26      37.15
N      12.20      10.06      33.01
N      10.37       8.15      32.60
N       7.31      27.94       5.09
N       9.12      29.86       4.65
N      20.53      36.24      19.15
N      18.59      38.04      18.71
N      38.29       1.75      47.11
N       0.92      39.27      46.66
N      31.81      27.74       5.01
N      30.03      29.68       4.50
N      27.00      10.26      32.90
N      28.80       8.33      32.45
N      27.10      27.90      22.55
N      28.90      29.80      23.07
N      31.72      10.11      50.47
N      29.92       8.20      51.03
N      18.48      16.69      36.81
N      20.44      18.46      37.22
N       1.03      21.30       8.82
N      38.38      19.54       9.28
N       0.80      16.64      46.92
N      38.23      18.50      46.50
N      18.71      21.36      18.97
N      20.59      19.51      18.54
O       8.67      14.48      52.96
O       4.88      17.40      44.46
O      10.84      23.53      25.02
O      14.62      20.61      16.50
O      33.95      37.44      11.00
O      30.69      33.86       2.50
O      24.87       0.59      38.95
O      28.14       4.13      30.44
O      11.37      14.12      30.48
O      14.22      17.93      39.00
O       8.13      23.88       2.53
O       5.29      20.07      11.05
O      24.55      37.13      16.55
O      28.53      34.04      24.91
O      34.26       0.86      44.51
O      30.30       3.98      52.86
O      30.64      23.49       2.76
O      34.21      20.27      11.28
O      28.18      14.51      30.71
O      24.61      17.73      39.23
O       5.12       0.40      44.79
O       8.58       4.13      53.16
O      14.38      37.60      16.84
O      10.92      33.88      25.21
O      27.84      23.88      25.17
O      24.86      19.82      16.80
O      30.98      14.13      53.12
O      33.96      18.19      44.75
O      14.56       0.58      39.18
O      10.74       3.91      30.81
O       4.96      37.44      11.23
O       8.75      34.09       2.86
O      10.47      20.27      42.14
O       8.58      19.97      43.15
O       9.13      17.70      14.14
O      10.97      18.05      15.21
O      28.08       0.25       0.25
O      28.36      37.71       1.31
O      30.69      37.63      28.28
O      30.46       0.24      29.26
O      28.54      17.68      13.52
O      30.38      17.97      12.44
O      30.39      20.28      41.40
O      28.48      20.04      40.39
O      11.07      37.78      55.55
O      10.83       0.31      54.43
O       8.43       0.26      27.57
O       8.67      37.73      26.48
O      30.16       0.65      14.07
O      28.27       0.38      15.10
O      28.74      37.33      41.96
O      30.58      37.63      43.06
O       8.44      19.64      28.08
O       8.77      17.80      29.14
O      11.04      18.28       0.17
O      10.74      20.18       1.18
O       8.83      37.34      41.58
O      10.68      37.57      40.50
O      10.78       0.62      13.56
O       8.87       0.44      12.56
O      30.71      18.43      27.74
O      30.40      20.25      26.61
O      28.09      19.59      55.68
O      28.41      17.77      54.57
O      11.52       8.84      52.41
O      11.66      10.65      51.22
O       7.92      29.17      24.33
O       7.85      27.31      23.24
O       0.23       1.08      10.34
O      37.69       1.16       9.22
O      19.29      37.00      38.41
O      21.09      36.86      37.20
O       8.04       8.72      31.49
O       8.04      10.65      32.47
O      11.40      29.28       3.44
O      11.46      27.38       4.50
O      19.13       1.03      17.55
O      21.07       1.10      18.52
O       0.38      36.96      45.49
O      37.76      36.90      46.47
O      27.73      29.10       3.34
O      27.63      27.28       4.52
O      31.17       8.90      31.44
O      31.19      10.78      32.51
O      31.18      29.20      24.27
O      31.24      27.31      23.24
O      27.69       8.80      52.31
O      27.58      10.67      51.21
O      19.91      20.84      38.24
O      18.02      20.88      37.20
O      38.92      17.21      10.42
O       1.45      17.11       9.27
O      38.86      20.83      45.42
O       1.47      20.81      46.43
O      19.95      17.17      17.46
O      18.05      17.20      18.48
