13

O       2.17      11.61       2.94
O       2.91      12.76       1.10
H       2.88       8.22      -1.48
O       1.25       6.75       2.10
H       3.41      10.92      -1.03
O       2.02       9.34       1.51
O       1.62       6.12      -0.02
C       1.61       7.00       0.91
C       2.11       8.34       0.57
C       2.55      11.71       1.73
C       2.55      10.47       0.93
C       2.69       8.82      -0.60
C       2.97      10.19      -0.36
