13

H       4.07       4.66       6.18
H       6.71       4.06       6.76
O       8.62       3.90       3.10
O       8.95       3.02       5.19
O       5.92       3.81       3.56
O       2.40       4.18       3.71
O       3.81       4.78       2.05
C       3.58       4.39       3.20
C       4.73       4.18       4.12
C       8.26       3.52       4.24
C       6.82       3.71       4.58
C       4.88       4.37       5.50
C       6.20       4.05       5.80
