13

C      11.41       4.46       8.87
C      11.26       6.10      10.39
C      10.99       4.74      10.16
H      11.08       6.71      11.27
H      10.55       4.00      10.83
O      11.79       3.32       6.86
O      11.05       2.17       8.70
O      12.71       8.18       7.70
O      11.94       5.59       8.29
O      12.34       8.81       9.82
C      11.41       3.22       8.07
C      12.35       7.93       8.89
C      11.85       6.59       9.23
