13

H       9.89      10.27       3.62
H       7.25      10.87       3.04
O       5.34      11.03       6.70
O       5.01      11.91       4.61
O       8.04      11.12       6.24
O      11.56      10.75       6.09
O      10.15      10.15       7.75
C      10.38      10.54       6.59
C       9.23      10.74       5.67
C       5.70      11.40       5.55
C       7.14      11.21       5.21
C       9.08      10.56       4.29
C       7.76      10.88       4.00
