20

Dy       2.78      11.19       3.58
Dy      -1.29       8.98       3.73
C       3.11       8.18       2.40
C       1.61       8.82       5.64
C       5.12      11.55       5.79
C       5.27      11.01       1.35
C       0.35      11.27       2.03
C      -0.76       6.14       0.61
C      -0.76       7.14       1.70
O       2.42       9.23       2.30
O       3.98       8.01       3.31
O       2.44       9.77       5.42
O       0.62       8.59       4.94
O       5.41      10.38       5.40
O       4.15      12.20       5.31
O       0.22      10.66       3.14
O       1.44      11.83       1.77
O       4.86      10.70       2.61
O      -0.46       6.81       2.88
O      -1.11       8.33       1.44
