16

O      -2.81       9.89       8.84
H       0.47      10.39       4.14
O      -2.82      10.64       1.93
H       0.46      10.14       6.64
H      -3.82      10.14       6.63
H      -3.81      10.39       4.12
C      -0.46      10.33       4.69
C      -0.46      10.19       6.08
C      -2.89      10.19       6.07
C      -2.89      10.33       4.69
C      -1.67      10.41       3.99
C      -1.68      10.57       2.50
C      -1.68      10.12       6.77
C      -1.68       9.96       8.26
O      -0.54      10.64       1.92
O      -0.53       9.89       8.83
