13

In      31.43       5.04      14.70
C      32.21       3.13      12.99
O      31.90       6.64      13.00
O      29.82       6.34      13.74
O      30.97       3.41      13.01
O      33.04       3.74      13.74
O      31.28       6.59      16.45
O      33.31       6.06      15.70
C      32.56       6.72      16.49
O      31.59       3.46      16.43
O      29.56       4.03      15.73
C      30.66       6.94      12.97
C      30.31       3.35      16.49
