13

In      20.01      10.10       5.10
O      18.33      11.31       4.10
O      20.38      11.69       3.34
O      19.64      11.69       6.86
O      21.69      11.31       6.10
C      19.13      11.93       3.33
C      21.02       8.42       3.30
C      20.89      11.93       6.87
O      21.79       9.00       4.14
O      19.76       8.60       3.31
C      19.00       8.42       6.90
O      18.23       8.99       6.05
O      20.27       8.60       6.89
