13

C      32.35      18.32       3.33
In      31.45      20.14       5.10
C      30.43      21.82       3.31
O      29.65      21.21       4.11
O      31.70      21.68       3.37
O      33.24      21.21       6.09
O      31.19      21.68       6.84
C      30.56      18.32       6.87
O      31.08      18.51       3.41
O      33.16      18.99       4.04
C      32.46      21.82       6.89
O      31.82      18.51       6.79
O      29.74      18.98       6.16
