25

N       4.65       5.16      10.79
O       2.62       2.70       8.18
O       3.08       0.89       9.44
O       8.09       1.61      17.69
O       8.46      -0.24      16.51
H       3.45       4.74       9.30
H       4.65       1.49      11.31
H       5.80       5.15      12.38
H       5.90       4.26      14.44
H       6.97       3.33      16.27
H       7.76       0.04      14.16
H       6.69       0.93      12.33
C       3.95       4.36       9.99
C       3.92       2.97      10.14
C       4.65       2.41      11.19
C       5.36       3.22      12.04
C       5.33       4.60      11.80
C       6.13       2.68      13.20
C       6.25       3.40      14.38
C       6.90       2.84      15.48
C       7.44       1.58      15.42
C       7.37       0.88      14.22
C       6.73       1.42      13.12
C       3.15       2.13       9.15
C       8.06       0.93      16.64
