25

O       1.02       3.62      19.70
O      -0.77       3.11      18.44
O      -2.65       7.81      10.19
O      -4.44       7.21      11.37
H       2.38       5.36      18.58
H      -1.04       4.77      16.57
H       1.56       7.60      15.50
H       0.73       7.24      13.44
H      -0.60       7.70      11.61
H      -3.85       6.74      13.72
H      -2.54       6.26      15.55
C       1.80       5.60      17.89
C       0.61       4.88      17.74
C      -0.24       5.23      16.69
C       0.11       6.26      15.84
C       1.32       6.91      16.08
C      -0.74       6.64      14.68
C      -0.19       7.11      13.50
C      -0.99       7.40      12.40
C      -2.35       7.23      12.46
C      -2.92       6.82      13.66
C      -2.14       6.53      14.75
C       0.27       3.79      18.73
C      -3.23       7.44      11.24
N       2.14       6.61      17.09
