25

N      -1.25       8.15       7.80
O       1.89       8.67      10.40
O       3.23       7.37       9.15
O       0.10       3.39       0.90
O       1.52       2.15       2.08
H      -0.29       8.98       9.28
H       1.92       6.31       7.28
H      -1.83       7.15       6.21
H      -1.10       6.61       4.15
H      -0.83       5.23       2.31
H       1.62       2.89       4.43
H       1.38       4.27       6.26
C      -0.21       8.36       8.60
C       1.00       7.68       8.45
C       1.13       6.77       7.40
C       0.07       6.56       6.54
C      -1.11       7.28       6.78
C       0.16       5.63       5.39
C      -0.53       5.88       4.20
C      -0.37       5.04       3.10
C       0.45       3.94       3.17
C       1.09       3.65       4.36
C       0.95       4.48       5.46
C       2.12       7.93       9.43
C       0.71       3.08       1.94
