11

Cu       6.61      10.25      12.63
O       7.16       8.92      11.24
O       6.86      11.47      14.21
C       6.37       8.76      10.22
C       5.35       8.87      14.92
C       6.68       7.45      13.67
N       6.13       8.67      13.83
C       7.84      11.14      14.99
N       6.87      11.82      11.37
C       7.47      11.68      10.18
C       6.24      12.99      11.63
