101

C       9.31      11.75       5.61
C       9.30      10.49       7.76
C       9.30      12.99       7.78
C       0.69      13.85       7.81
C       0.67      15.07       8.53
C       9.23      15.50       9.24
C       8.12      14.62       9.20
C       8.15      13.40       8.50
C       8.17      12.14       4.88
C       8.15      12.13       3.47
C       9.29      11.74       2.70
C       0.72      11.37       3.45
C       0.73      11.36       4.86
C       8.15       9.67       7.77
C       8.13       8.44       8.47
C       9.25       7.96       9.20
C       0.68       8.80       9.19
C       0.71      10.03       8.49
C       9.29      -0.82      15.76
C       9.26       0.40      13.58
C       9.24      -2.09      13.60
C       8.20      -3.03      13.81
C       8.17      -4.27      13.13
C       9.14      -4.62      12.16
C       0.47      -3.68      11.96
C       0.52      -2.46      12.67
C       8.25      -0.20      16.50
C       8.24      -0.19      17.91
C       9.24      -0.85      18.67
C       0.57      -1.46      17.93
C       0.60      -1.44      16.52
C       8.04       1.00      13.20
C       8.01       2.23      12.49
C       9.19       2.89      12.09
C       0.70       2.29      12.48
C       0.73       1.07      13.22
C       9.27      11.73       1.25
C       8.15      11.25       0.52
C       8.10      -1.37      20.89
C       9.20      -0.88      20.13
C       0.61      -0.42      20.86
C       0.65      12.17       0.47
C       6.91      -1.98      20.24
C       9.23       6.69       9.91
C       8.56       5.55       9.40
C       8.52       4.29      10.07
C       9.17       4.13      11.33
C       0.14       5.26      11.84
C       0.17       6.50      11.15
C       7.84       3.15       9.39
C       9.20      16.76       9.97
C       8.05      17.60       9.96
C       7.99      18.85      10.65
C       9.10      -5.88      11.43
C       0.54      18.46      11.43
C       0.58      17.24      10.72
C       6.76      -5.49      10.49
H       7.30      12.43       2.99
H       7.33      12.43       5.39
H       1.58      11.07       5.35
H       1.57      11.06       2.96
H       1.54      13.60       7.30
H       1.50      15.67       8.49
H       7.32       9.97       7.27
H       7.26       7.90       8.46
H       1.54       8.51       9.67
H       1.56      10.60       8.50
H       7.32      12.80       8.50
H       7.26      14.86       9.72
H       7.49       0.31      18.38
H       7.49       0.27      16.00
H       1.37      -1.90      16.03
H       1.33      -1.94      18.43
H       7.47      -2.82      14.50
H       7.42      -4.93      13.36
H       7.16       0.55      13.46
H       7.10       2.64      12.28
H       1.59       2.72      12.22
H       1.64       0.67      13.48
H       1.30      -1.82      12.49
H       1.21      -3.88      11.28
H       7.35      10.88       1.05
H       1.43      -0.05      20.36
H       1.48      12.55       0.93
H       6.25      -2.48      20.96
H       7.22      -2.72      19.51
H       6.31      -1.21      19.75
H       8.11       5.63       8.48
H       0.62       5.20      12.74
H       0.66       7.28      11.60
H       7.55       3.38       8.36
H       6.94       2.87       9.93
H       8.51       2.29       9.35
H       7.25      17.31       9.39
H       1.36      -6.44      11.97
H       1.43      16.67      10.78
H       6.09      19.30       9.72
H       7.04      -4.48      10.20
H       6.20      -5.46      11.42
N       9.33      11.74       7.05
N       9.29      -0.84      14.32
