20

C       1.13      10.99      20.33
C       1.97      10.86      18.17
C       1.98       9.98      20.76
C       2.88       9.87      18.53
C       2.91       9.44      19.86
C       3.93       8.47      20.31
C       5.24       8.55      19.81
C       3.63       7.48      21.26
C       6.18       7.64      20.26
C       4.63       6.59      21.64
N       1.13      11.43      19.06
N       5.88       6.66      21.14
H       0.44      11.49      21.01
H       1.91      11.24      17.15
H       1.96       9.67      21.81
H       3.55       9.45      17.79
H       5.52       9.33      19.12
H       2.63       7.37      21.68
H       7.21       7.65      19.91
H       4.44       5.80      22.35
