30

C       3.46      13.55      23.70
C       4.27      14.42      24.46
C       5.51      14.78      23.90
C       5.91      14.29      22.66
O       1.33      12.66      23.39
O       1.94      13.19      25.44
O       0.74      16.37      25.69
O       2.15      16.23      24.01
O       4.91      12.00      20.00
O       4.55      16.37      30.66
N       1.87      16.16      25.22
N       2.15      13.10      24.21
H       5.60      14.98      28.84
H       5.75      13.97      26.56
H       2.03      17.06      27.68
H       3.20      12.40      21.89
H       6.16      15.45      24.46
H       6.89      14.55      22.27
O       6.68      13.42      20.22
O       2.98      17.76      29.91
C       3.78      16.78      29.72
C       3.83      16.11      28.39
C       4.86      15.22      28.08
C       4.94      14.66      26.81
C       3.99      14.96      25.81
C       2.93      15.82      26.17
C       2.84      16.39      27.44
C       5.56      12.87      20.60
C       5.09      13.43      21.92
C       3.85      13.07      22.45
