16

O       1.20       8.27      18.03
V       4.27       8.87      19.68
V       0.79       9.17      19.77
O       3.49       8.12      17.99
O       3.48       7.28      20.66
O       1.18       7.43      20.72
O       2.37       9.83      19.97
O       0.03      10.75      18.78
O       0.02       9.92      21.46
O      -1.13       8.21      19.48
O       4.68       9.76      21.42
O       4.70      10.60      18.73
C       2.31       6.85      21.01
C       2.32       7.95      17.45
C      -1.14      11.19      18.46
C      -1.15      10.07      22.00
