16

V       0.33       4.66       9.91
O      -1.23       5.32      10.11
C       2.28       5.58      12.13
C       2.29       6.69       8.60
C      -1.21       3.43       7.59
C      -1.22       2.34      11.13
V      -3.15       4.36       9.82
O      -3.54       6.09       8.87
O       1.11       5.41      11.60
O      -0.10       2.92      10.86
O       1.12       6.24       8.92
O      -0.09       3.77       8.16
O      -3.56       5.25      11.56
O       2.23       3.70       9.62
O      -2.38       3.61       8.13
O      -2.40       2.77      10.80
