25

Zn      -1.19       0.76      14.92
Zn      -1.20       1.54      18.07
Zn      -1.23       2.38      21.20
C       0.79      -0.41      16.54
C      -0.94       3.47      15.39
C      -3.25      -0.35      16.63
C       0.85       3.45      19.47
C      -3.20       3.53      19.58
C      -1.52      -0.36      20.73
C      -2.11      -0.55      12.46
C      -0.83       1.35      12.00
C      -1.43       1.71      24.12
C      -0.26       3.67      23.64
N      -1.41       0.53      12.90
N      -0.94       2.57      23.21
O       0.49      -0.20      15.30
O       0.16       0.04      17.54
O      -1.26       2.36      16.03
O      -2.73      -0.37      15.46
O      -2.86       0.34      17.62
O       0.45       2.76      18.49
O       0.34       3.45      20.65
O      -2.60       3.04      18.58
O      -2.88       3.36      20.82
O      -1.16       0.75      20.11
