14

U       7.57       8.95      11.72
U      11.71       7.17      11.16
O       5.70      10.05      11.42
O       3.37       9.23      11.64
P       8.00      12.46      10.81
P       8.36       5.70      10.68
P      12.13       3.62      11.78
P       4.28      10.57      11.82
O       8.23      10.90      11.20
F       9.44       8.58      10.80
F       5.36       7.54      12.37
O       7.46       7.06      10.87
O       9.84       6.08      10.97
O      12.37       5.18      11.46
