13

C       7.23      18.86       4.62
C       8.25      17.88       4.16
C       9.66      16.79       2.94
C      10.51      16.37       1.80
N       8.78      16.93       4.93
N       9.69      16.23       4.16
N       8.78      17.82       2.91
H       6.21      18.47       4.44
H       7.32      19.79       4.05
H       7.35      19.05       5.69
H      11.34      15.74       2.14
H      10.89      17.26       1.28
H       9.91      15.82       1.06
