13

H       5.95      17.77       7.38
H       4.52      17.29       8.31
C       5.54      15.69       7.35
N       6.79      15.29       7.09
N       4.73      14.60       7.52
C       5.09      12.10       7.39
C       5.54      13.51       7.34
C       5.09      17.10       7.39
H       4.43      11.88       6.54
H       5.95      11.43       7.38
H       4.52      11.90       8.31
N       6.79      13.91       7.09
H       4.43      17.32       6.54
