16

H       7.23      16.77      21.51
O       8.02      17.11      25.36
O       7.42      18.19      23.46
H       7.22      12.45      21.51
C       7.67      12.08      24.14
C       7.56      13.39      23.41
C       7.32      13.40      22.03
C       7.57      15.83      23.41
C       7.33      15.82      22.03
C       7.68      17.14      24.14
H       7.03      14.61      20.27
H       7.85      14.61      25.17
O       8.02      12.11      25.37
O       7.41      11.02      23.47
C       7.22      14.61      21.34
C       7.68      14.61      24.10
