13

C      10.46       7.38      17.96
C      10.01       5.97      18.01
C      10.46       2.38      17.96
C      10.01       3.79      18.01
N      10.82       4.88      17.84
N       8.76       5.57      18.27
N       8.76       4.19      18.27
H      11.12       2.16      18.82
H       9.60       1.71      17.98
H      11.03       2.18      17.04
H      11.12       7.60      18.82
H       9.60       8.05      17.98
H      11.03       7.58      17.05
