13

N      12.49      14.60       5.17
H      12.18      17.33       6.13
H      13.71      17.77       5.30
H      12.28      17.30       4.36
H      12.19      11.87       6.14
H      13.72      11.43       5.30
H      12.28      11.90       4.36
N      14.54      13.91       5.59
C      12.85      12.10       5.28
C      13.30      13.51       5.34
C      12.85      17.10       5.28
C      13.30      15.69       5.34
N      14.54      15.29       5.59
