13

N       1.03      16.92       7.75
N       1.94      16.23       8.54
N       1.03      17.83       9.77
C      -0.52      18.85       8.06
C       0.50      17.88       8.52
C       1.91      16.80       9.75
C       2.76      16.37      10.89
H      -1.53      18.47       8.24
H      -0.42      19.79       8.62
H      -0.40      19.05       6.99
H       3.59      15.75      10.55
H       3.13      17.26      11.42
H       2.16      15.82      11.63
