28

H       5.66      13.62      10.19
H       6.50      16.50      13.81
H       6.27      15.51      11.61
H       4.02      11.53      13.53
H       3.69      13.64      19.21
H       3.79      11.45      15.59
H       3.29      11.58      17.94
H       6.01      16.55      16.15
C       4.75      11.23      11.02
C       5.76      14.66      12.06
C       4.77      12.47      11.79
C       3.99      13.59      18.17
C       3.75      12.43      17.45
C       4.04      12.37      16.09
C       4.64      13.48      15.43
C       4.99      14.62      16.20
C       4.87      13.49      14.02
C       5.53      14.61      13.44
C       5.97      15.66      14.24
C       5.68      15.68      15.59
C       4.48      12.43      13.16
C       5.40      13.60      11.24
C       4.60      14.69      17.57
C       4.58      15.97      18.31
O       3.58      10.66      10.76
O       5.97      10.81      10.71
O       3.37      16.39      18.62
O       5.75      16.55      18.57
