31

H       5.77       4.57       6.91
H       7.50       4.50      11.58
H       7.70       6.59      10.19
H       4.08       3.85      10.61
H       2.18       2.38      14.19
H       6.05       0.84      13.01
O       4.66       1.53       8.88
N       5.30       2.27       8.13
O       5.40       2.14       6.90
O       7.19       8.03       8.33
C       6.72       5.72       8.48
O       6.53       6.96       6.44
C       6.14       4.58       7.93
C       5.98       3.44       8.72
C       6.45       3.42      10.05
C       7.11       4.54      10.56
C       7.23       5.69       9.79
C       5.19       2.35      11.71
C       4.10       3.19      11.47
C       3.00       3.18      12.33
C       4.11       1.54      13.71
C       5.20       1.50      12.82
C       6.81       6.99       7.69
O       6.31       2.32      10.88
C       3.00       2.37      13.48
C       1.87       4.06      11.99
O       1.95       4.85      10.99
O       0.78       4.04      12.70
C       4.20       0.77      14.98
O       3.40       1.05      15.95
O       5.15      -0.07      15.15
