31

C       9.97       2.27       2.15
C      10.79       3.26       1.61
C      11.77       3.86       2.40
C      11.96       3.45       3.73
C      11.20       2.39       4.24
C      10.20       1.82       3.47
C      12.45       5.05       5.39
C      11.26       5.72       5.13
C      10.84       6.75       6.00
C      11.59       7.06       7.14
C      12.79       6.37       7.38
C      13.24       5.38       6.49
C       8.85       1.67       1.36
H      10.65       3.60       0.58
H      11.40       2.05       5.26
H       9.58       1.02       3.87
H      10.64       5.49       4.27
H      11.26       7.82       7.85
H      14.17       4.85       6.69
C       9.59       7.46       5.65
C      13.55       6.61       8.63
N      12.56       4.95       1.80
O       8.07       0.89       1.99
O       8.75       1.96       0.12
O      12.73       4.90       0.57
O      12.99       5.83       2.55
O       8.93       7.11       4.62
O       9.18       8.44       6.39
O      13.01       7.26       9.61
O      14.70       6.05       8.80
O      12.91       4.02       4.56
