31

H      -3.94       1.53      12.08
H      -4.73       3.07       7.41
H      -2.89       4.10       8.78
H      -3.95      -0.38       8.39
H      -4.59      -2.71       4.81
H      -7.49       0.28       5.98
C      -3.27       2.85      10.50
C      -4.09       1.86      11.05
C      -5.07       1.25      10.27
C      -5.27       1.66       8.93
C      -4.51       2.72       8.42
C      -3.51       3.30       9.19
C      -5.77       0.07       7.28
C      -4.58      -0.62       7.53
C      -4.17      -1.64       6.66
C      -4.92      -1.95       5.52
C      -6.11      -1.25       5.29
C      -6.56      -0.25       6.17
C      -2.15       3.44      11.29
C      -2.92      -2.35       7.01
C      -6.87      -1.48       4.03
N      -5.87       0.17      10.88
O      -1.34       4.19      10.64
O      -2.06       3.17      12.53
O      -6.05       0.23      12.10
O      -6.29      -0.73      10.13
O      -2.25      -2.00       8.03
O      -2.50      -3.33       6.27
O      -6.33      -2.16       3.07
O      -8.00      -0.91       3.84
O      -6.22       1.09       8.11
