48

O      24.64      11.04       4.20
O      25.44       9.00       4.57
C      29.37      10.35       3.54
C      29.65      11.72       3.68
C      25.62      10.22       4.25
C      27.28      12.11       4.10
C      27.00      10.73       3.99
C      28.07       9.86       3.71
C      28.59      12.59       3.96
C      35.95      10.60      -2.60
O      36.90      11.26      -3.13
O      35.56       9.50      -3.12
H      32.82      10.02       0.75
H      35.13      13.70       0.81
H      36.34      12.93      -1.16
H      33.97       9.33      -1.23
H      34.65      13.62       2.95
H      31.03      13.40       5.30
H      31.29      11.26       1.63
C      33.83      11.95       0.97
C      34.88      12.73       0.41
C      33.55      10.71       0.34
C      34.24      10.29      -0.80
C      35.25      11.08      -1.37
O      35.95      18.07       8.04
C      35.57      12.30      -0.75
O      35.71      16.36       9.43
C      34.48      15.49       4.90
C      33.52      14.51       5.24
C      33.18      14.38       6.62
C      33.82      15.17       7.60
C      34.77      16.13       7.25
C      35.08      16.30       5.88
C      33.09      12.38       2.12
C      33.63      13.29       3.07
C      32.92      13.65       4.25
C      31.62      13.12       4.44
C      31.05      12.24       3.50
C      31.78      11.88       2.36
H      30.17       9.65       3.33
H      28.77      13.66       4.06
H      26.49      12.81       4.33
H      27.89       8.79       3.63
C      35.51      16.90       8.30
H      34.75      15.66       3.87
H      32.49      13.63       6.96
H      33.56      15.01       8.64
H      35.81      17.03       5.58
