48

C       4.42       8.26      27.88
C      -4.78       5.72      31.72
C      -3.75       6.49      31.13
C      -3.46       7.74      31.74
C      -4.15       8.17      32.88
C      -5.16       7.39      33.46
C      -5.47       6.16      32.87
H      -5.03       4.73      31.34
H      -2.74       8.42      31.32
H      -3.89       9.14      33.29
H      -6.24       5.53      33.29
C      -4.95       3.84      26.79
C      -3.54       3.93      26.85
C      -2.81       3.18      25.88
C      -3.47       2.39      24.92
C      -4.87       2.30      24.88
C      -5.60       3.04      25.83
C      -3.02       6.06      29.97
C      -3.58       5.15      29.03
C      -2.90       4.76      27.84
C      -1.58       5.26      27.66
H      -4.56       4.76      29.23
C      -1.71       6.54      29.72
H      -1.21       7.17      30.44
C      -0.99       6.15      28.58
H      -1.01       5.02      26.77
O      -6.87       1.39      23.99
O      -5.02       0.97      22.85
H      -5.59       4.43      27.42
H      -1.73       3.17      25.88
H      -2.87       1.83      24.20
H      -6.68       3.03      25.83
H       1.31       4.77      28.00
H      -0.16       8.75      28.73
H       3.59       5.65      27.77
H       2.11       9.65      28.46
O      -5.49       9.00      35.18
O      -6.81       7.22      35.23
C       1.47       5.84      28.10
C       0.39       6.69      28.38
C       0.65       8.07      28.52
C       1.95       8.58      28.37
C       3.04       7.73      28.11
C       2.78       6.34      27.99
O       4.58       9.49      27.58
O       5.40       7.46      27.93
C      -5.61       1.50      23.85
C      -5.87       7.89      34.69
