48

C       5.95      11.01      24.23
C      -4.40      17.09      21.11
C       3.54      13.50      22.65
C       3.84      13.43      21.26
H       2.81      14.19      23.03
C       4.90      12.57      20.88
C       5.26      11.85      23.19
C       4.23      12.73      23.58
H       3.96      12.83      24.63
H       5.17      12.45      19.84
C       5.59      11.78      21.83
H       6.37      11.12      21.49
C       5.47      17.32      13.26
H       1.28      14.32      21.52
H       4.64      14.32      18.79
H       1.02      16.41      17.81
O       5.88      16.52      12.36
O       5.72      18.57      13.17
C       4.23      14.99      16.03
H      -1.25      15.21      18.22
H      -2.13      17.25      22.66
C       3.52      15.86      16.86
H      -3.53      15.87      18.82
C       3.41      17.21      16.48
H       0.15      16.57      22.06
C       4.83      15.45      14.84
C       4.03      17.68      15.30
C       1.02      15.43      19.73
C       1.77      14.64      20.62
C       3.09      14.21      20.31
C       3.63      14.58      19.05
C       2.90      15.39      18.15
C       1.59      15.80      18.50
O       6.89      10.21      23.92
O       5.56      11.12      25.44
C       4.75      16.80      14.46
C      -1.43      15.66      19.19
C      -0.37      15.84      20.09
C      -0.65      16.41      21.35
C      -1.96      16.80      21.69
C      -3.02      16.61      20.79
C      -2.74      16.02      19.54
H       4.32      13.94      16.29
H       2.88      17.92      17.10
H       3.95      18.73      15.05
H       5.38      14.74      14.22
O      -5.38      16.64      20.43
O      -4.58      17.97      22.01
