48

O       5.73      -2.33      11.34
C       6.19      -3.14      10.49
O       7.24      -2.87       9.81
H       2.27      -5.59      10.36
H       5.93      -7.65       9.30
H       7.18      -5.60       9.70
H       3.53      -3.57      10.75
H       4.77      -9.41      10.11
C       3.97      -6.82       9.77
H       1.08     -11.23       8.87
C       3.33      -5.63      10.18
C       5.46      -4.42      10.26
C       4.06      -4.46      10.43
H       1.44      -6.96       8.82
C       5.38      -6.78       9.63
C       6.11      -5.60       9.84
C       1.11      -9.08       8.80
C       1.67     -10.34       9.05
C       3.00     -10.47       9.51
C       3.76      -9.30       9.73
C       3.21      -8.01       9.52
C       1.88      -7.92       9.04
H      -1.15     -10.26       9.79
H      -3.45     -10.08       8.95
H      -2.10      -7.45       5.80
O       5.88     -16.06      11.53
C       3.46     -12.85       8.81
O       5.75     -16.38       9.35
C       3.59     -11.82       9.77
C       4.29     -12.10      10.95
C       4.87     -13.36      11.18
C      -0.59      -8.14       7.18
C      -0.29      -8.95       8.29
C      -1.35      -9.64       8.92
C      -2.66      -9.52       8.44
C      -2.96      -8.74       7.31
C       4.05     -14.11       9.03
C       4.77     -14.38      10.21
C      -1.91      -8.05       6.68
O      -5.31      -9.12       7.47
O      -4.54      -8.41       5.53
H       0.20      -7.61       6.67
H       2.93     -12.67       7.89
H       4.40     -11.33      11.71
H       5.42     -13.53      12.09
H       3.96     -14.86       8.25
C       5.49     -15.68      10.38
C      -4.35      -8.74       6.74
