48

O      20.38       9.14       7.53
O      19.59       8.44       5.59
O       9.33       2.37      11.33
C      19.40       8.78       6.80
O       7.81       2.92       9.82
C       8.87       3.19      10.48
C      15.64       8.24       7.23
C      15.35       9.05       8.34
C      16.40       9.74       8.96
C      17.72       9.61       8.49
C      18.01       8.81       7.37
C      16.95       8.13       6.74
H       9.14       7.70       9.30
H      12.80       5.65      10.37
H      11.53       3.62      10.75
H       7.89       5.65       9.69
H      13.93      11.32       8.90
H      10.29       9.42      10.18
C      11.09       6.87       9.79
H      13.64       7.05       8.87
C       9.68       6.83       9.63
C      11.73       5.68      10.18
C       8.96       5.64       9.84
C       9.61       4.47      10.25
C      11.00       4.51      10.43
O       8.09      15.62      10.67
C       9.99      12.05       9.54
C      11.37      11.89       9.77
C      12.10      13.01      10.22
C      11.46      14.25      10.45
C      10.08      14.39      10.26
C       9.36      13.28       9.80
O       9.96      16.81      10.52
H       8.29      13.35       9.61
C      13.94       9.17       8.86
C      13.36      10.43       9.10
C      12.02      10.54       9.55
C      11.28       9.35       9.76
C      11.85       8.07       9.55
C      13.19       8.01       9.09
H       9.39      11.24       9.15
H      13.16      12.93      10.42
H      14.85       7.70       6.73
H      17.14       7.51       5.87
H      16.21      10.37       9.82
C       9.35      15.68      10.51
H      18.51      10.17       8.99
H      12.05      15.09      10.81
