48

O      20.58       9.49       3.11
C      13.55      12.60      -3.92
O      21.90      11.26       3.15
C      14.34      10.36      -3.48
C      14.62      11.74      -3.63
C      13.04       9.87      -3.64
C      12.24      12.11      -4.06
C      11.97      10.73      -3.93
C      20.97      10.59       2.61
C      10.59      10.22      -4.20
O      10.41       8.99      -4.52
O       9.61      11.03      -4.16
H      19.87      13.83      -0.59
H      18.13       9.90      -1.00
H      19.31       9.17       0.98
C      19.21      15.68      -4.95
C      18.40      14.18      -6.66
H      19.64      13.63      -2.99
C      19.75      12.81      -0.27
C      18.88      11.93      -0.96
C      18.76      10.61      -0.49
H      16.32      11.25      -1.59
C      20.29      11.06       1.36
C      20.45      12.38       0.88
H      21.09      13.07       1.39
C      19.44      10.19       0.65
C      19.82      16.48      -5.94
C      18.49      14.52      -5.30
O      20.77      16.33      -9.45
O      20.91      18.07      -8.09
H      15.99      13.43      -5.28
C      18.08      12.39      -2.14
C      18.62      13.27      -3.10
C      17.88      13.65      -4.25
C      16.57      13.14      -4.41
C      16.01      12.27      -3.46
C      16.77      11.90      -2.34
C      19.03      14.96      -7.64
C      19.76      16.12      -7.30
H      19.30      15.98      -3.91
H      17.86      13.29      -6.96
H      18.96      14.65      -8.68
H      20.38      17.35      -5.63
H      13.73      13.67      -4.03
H      15.14       9.67      -3.25
H      12.87       8.80      -3.55
H      11.45      12.81      -4.29
C      20.51      16.89      -8.34
