48

C      10.61       9.79      25.36
C      20.98      15.49      21.63
C      18.78      12.79      23.16
C      18.90      11.72      22.25
C      19.77      11.88      21.15
C      20.47      13.09      20.95
C      20.31      14.17      21.84
C      19.46      13.99      22.95
H      18.15      12.70      24.04
H      19.89      11.09      20.43
H      21.11      13.19      20.08
H      19.33      14.79      23.67
C      19.21       6.38      21.01
C      18.50       6.67      22.19
C      18.40       5.66      23.17
C      19.03       4.42      22.99
C      19.75       4.13      21.82
C      19.82       5.13      20.82
C      16.02       9.40      23.21
H      16.00       7.24      23.13
C      17.89       8.02      22.42
C      18.63       9.20      22.17
C      16.58       8.14      22.94
H      19.65       9.11      21.81
C      18.10      10.47      22.46
C      16.79      10.55      22.97
H      16.34      11.52      23.16
O      20.89       2.45      20.52
O      20.77       2.17      22.71
H      19.30       7.13      20.24
H      17.87       5.85      24.10
H      18.96       3.68      23.78
H      20.37       4.95      19.91
H      13.74       8.21      22.29
H      11.46       8.41      23.16
H      15.16      10.88      25.36
H      12.88      11.06      26.26
C      13.56       8.84      23.15
C      14.63       9.52      23.76
C      14.36      10.34      24.87
C      13.06      10.45      25.39
C      11.99       9.76      24.78
C      12.26       8.97      23.65
O      10.43      10.13      26.58
O       9.63       9.42      24.64
C      20.50       2.84      21.67
O      20.59      16.48      22.32
O      21.91      15.62      20.77
