48

C      13.77      -3.52      11.32
C      12.49      -3.04      10.98
C      12.08      -1.75      11.36
C      12.99      -0.95      12.07
C      21.00      -7.60       7.90
O       9.95      -1.75      10.19
C      19.92      -6.09      11.26
O      10.31      -0.24      11.78
C      18.85      -5.23      10.88
C      18.55      -5.16       9.50
C      10.70      -1.23      11.09
C      20.62      -6.86      10.31
C      20.29      -6.79       8.94
C      19.26      -5.92       8.56
H      20.19      -6.22      12.30
H      17.81      -4.48       9.11
H      18.98      -5.82       7.51
H      21.41      -7.51      10.64
C      18.50      -1.38      15.59
C      18.59      -2.74      15.24
C      19.29      -3.61      16.09
C      19.88      -3.13      17.27
C      19.82      -1.77      17.62
C      19.12      -0.90      16.76
H      16.30      -4.33      10.62
H      19.67      -4.34      13.33
H      16.10      -2.21      14.33
O      20.79       0.01      18.89
O      20.94      -2.03      19.73
C      16.05      -3.21      12.41
C      16.78      -4.03      11.53
C      18.10      -4.46      11.83
C      18.66      -4.07      13.08
C      17.95      -3.24      13.97
C      16.65      -2.82      13.63
H      17.98      -0.68      14.95
H      19.37      -4.67      15.85
O      20.61      -7.49       6.69
O      21.96      -8.38       8.21
H      14.94      -0.75      12.92
H      14.03      -4.53      11.04
H      11.81      -3.69      10.44
H      12.73       0.06      12.37
H      19.05       0.15      16.99
H      20.43      -3.83      17.90
C      20.54      -1.23      18.82
C      14.27      -1.42      12.40
C      14.68      -2.71      12.04
