48

O      24.46       7.42       6.75
O      23.14       8.37       8.25
C      24.08       7.56       7.96
O      35.13       1.81      10.25
C      34.39       1.29      11.15
O      34.80       0.29      11.82
C      26.36       4.99       9.59
C      26.24       5.27      10.96
C      25.36       6.31      11.34
C      24.64       7.05      10.38
C      24.79       6.77       9.01
C      25.65       5.72       8.63
H      26.99       4.18       9.25
H      25.24       6.57      12.39
H      23.99       7.85      10.71
H      25.78       5.46       7.59
C      27.21       2.35      16.48
C      26.48       2.82      15.35
C      25.07       2.79      15.45
C      24.43       2.35      16.61
C      25.16       1.89      17.73
C      26.56       1.89      17.64
H      29.02       2.26      14.47
H      25.45       4.46      13.41
C      29.07       3.27      12.58
C      28.46       2.89      13.81
C      27.13       3.28      14.14
H      28.78       4.35      10.74
C      27.02       4.48      11.97
C      28.33       4.07      11.69
C      26.44       4.10      13.20
O      25.01       0.77      19.88
O      23.15       1.53      18.95
H      30.20       0.82      13.10
H      31.06       4.59      11.17
H      33.27       3.74      10.52
H      32.40       0.01      12.51
H      28.29       2.38      16.50
H      24.43       3.06      14.63
H      27.15       1.55      18.48
H      23.35       2.34      16.62
C      30.86       1.49      12.56
C      30.44       2.78      12.21
C      31.34       3.58      11.46
C      32.61       3.10      11.08
C      33.02       1.81      11.46
C      32.13       1.01      12.20
C      24.41       1.37      18.93
