48

H      23.77      16.69       7.58
H      21.32      14.94      10.68
H      21.34      12.81       9.49
H      23.71      14.59       6.35
O      22.67      12.24       5.82
O      22.35      11.15       7.73
C      22.54      18.55      17.95
C      22.51      12.24       7.09
C      21.94      21.19       8.00
C      22.58      19.75      11.40
C      22.59      19.76       9.99
C      22.60      21.06       9.23
C      22.56      17.30       9.99
C      22.58      18.53       9.30
C      23.21      17.52      14.35
C      22.56      18.54      13.62
C      21.91      19.56      14.34
C      23.27      22.19       9.74
H      22.59      20.68      11.94
H      22.54      16.39      11.94
C      22.57      18.54      12.12
H      22.58      18.53       8.22
C      22.54      16.00       9.24
C      23.21      15.87       8.00
C      21.87      14.87       9.75
C      23.19      17.52      15.75
C      21.91      19.57      15.75
C      22.55      18.54      16.47
C      23.27      23.41       9.05
C      23.18      14.65       7.30
C      22.52      13.53       7.82
C      21.87      13.65       9.06
C      22.55      17.32      11.40
C      22.62      23.53       7.81
C      21.96      22.40       7.29
O      22.45      24.80       5.80
H      21.37      20.34      13.83
O      22.78      25.91       7.70
H      23.79      24.26       9.47
O      22.68      17.45      18.58
H      21.38      20.36       7.58
H      23.82      22.14      10.67
O      22.40      19.65      18.58
H      21.43      22.46       6.34
H      23.75      16.73      13.85
C      22.62      24.81       7.06
H      21.40      20.37      16.27
H      23.70      16.72      16.28
