640

H       0.32      37.61      10.91
H       3.76      36.12      12.77
H      24.65       2.22      12.71
H      27.24      38.39      14.64
H       1.84       0.69      15.43
H      28.21       0.95       9.91
H      23.99       0.90      14.58
H      25.21       2.29      10.17
H       3.15      35.38      10.70
H       4.02      36.51      15.16
H      14.61       1.17      27.87
H      18.04       2.66      26.00
H      10.36      36.57      26.07
H      12.96       0.39      24.14
H      16.14      38.07      23.36
H      13.92      37.83      28.86
H       9.70      37.88      24.19
H      10.92      36.49      28.61
H      17.44       3.40      28.08
H      18.31       2.27      23.62
H       7.46      27.87      37.61
H      10.90      26.00      36.12
H       3.22      26.07       2.21
H       5.81      24.14      38.39
H       9.00      23.36       0.70
H       6.77      28.87       0.95
H       2.56      24.19       0.90
H       3.78      28.61       2.29
H      10.29      28.08      35.38
H      11.16      23.62      36.51
H      21.75      10.91       1.17
H      25.19      12.78       2.66
H      17.51      12.71      36.56
H      20.10      14.64       0.39
H      23.28      15.43      38.08
H      21.06       9.91      37.84
H      16.85      14.59      37.87
H      18.07      10.17      36.49
H      24.58      10.70       3.40
H      25.45      15.16       2.27
H      24.08       6.59       2.46
H      23.65       9.69       5.30
H      26.25       2.76       7.63
H      25.97       6.24       9.99
H      25.06       2.14       4.69
H      23.96       3.94       2.81
H       9.79      32.18      36.32
H       9.36      29.09      33.48
H      11.96      36.02      31.16
H      11.68      32.55      28.79
H      10.77      36.64      34.09
H       9.67      34.84      35.97
H       2.65      36.32       6.60
H       2.21      33.48       9.69
H       4.81      31.15       2.76
H       4.53      28.79       6.24
H       3.63      34.09       2.14
H       2.52      35.97       3.94
H      16.94       2.46      32.18
H      16.50       5.30      29.09
H      19.10       7.63      36.02
H      18.82       9.99      32.55
H      17.91       4.69      36.64
H      16.81       2.81      34.84
H      17.71      36.97      19.82
H      19.84       0.28      22.76
H      22.92      37.99      15.70
H      24.76       1.33      18.80
H      20.72      35.98      15.79
H      17.78      37.12      17.22
H       3.35       1.67      19.01
H       5.58      38.55      16.01
H       8.63       0.79      23.08
H      10.50      37.50      19.96
H       6.36       2.72      23.03
H       4.09       2.95      21.12
H      24.79      19.01      37.10
H      27.01      16.01       0.24
H       1.49      23.08      37.99
H       3.34      19.97       1.30
H      27.83      23.03      36.05
H      25.48      21.07      35.84
H      10.56      19.81       1.80
H      12.70      22.76      38.50
H      15.78      15.70       0.79
H      17.62      18.81      37.47
H      13.60      15.78       2.77
H      10.59      17.31       1.68
H       2.32      38.61      26.91
H       5.76      37.12      28.77
H      26.65       3.22      28.71
H       0.67       0.55      30.64
H       3.84       1.69      31.43
H       1.63       1.95      25.91
H      25.99       1.90      30.58
H      27.21       3.29      26.17
H       5.15      36.38      26.70
H       6.02      37.51      31.16
H      16.61       2.17       5.03
H      20.04       3.66       3.16
H      12.36      37.57       3.23
H      14.96       1.39       1.30
H      18.14       0.24       0.52
H      15.92      38.83       6.03
H      11.70       0.04       1.35
H      12.92      37.49       5.77
H      19.44       4.40       5.24
H      20.31       3.27       0.78
H       9.46      28.87      14.77
H      12.90      27.00      13.28
H       5.22      27.07      18.21
H       7.81      25.14      15.55
H      11.00      24.36      16.70
H       8.77      29.87      16.95
H       4.56      25.19      16.90
H       5.78      29.61      18.29
H      12.29      29.08      12.54
H      13.16      24.62      13.67
H      23.75      11.91      17.17
H      27.19      13.78      18.66
H      19.51      13.71      13.72
H      22.10      15.64      16.39
H      25.28      16.43      15.25
H      23.06      10.91      15.00
H      18.85      15.59      15.03
H      20.07      11.17      13.65
H      26.58      11.70      19.40
H      27.45      16.16      18.27
H      26.08       7.59      18.46
H      25.65      10.69      21.30
H      28.25       3.76      23.63
H      27.97       7.24      25.99
H      27.06       3.14      20.69
H      25.96       4.94      18.81
H      11.79      33.18      13.48
H      11.36      30.09      10.64
H      13.96      37.02       8.32
H      13.68      33.55       5.95
H      12.77      37.64      11.25
H      11.67      35.84      13.13
H       4.65      37.32      22.60
H       4.21      34.48      25.69
H       6.81      32.15      18.76
H       6.53      29.79      22.24
H       5.63      35.09      18.14
H       4.52      36.97      19.94
H      18.94       3.46       9.35
H      18.50       6.30       6.25
H      21.10       8.63      13.18
H      20.82      10.99       9.71
H      19.91       5.69      13.81
H      18.81       3.81      12.00
H      19.71      37.97      35.82
H      21.84       1.28      38.76
H      24.92       0.15      31.70
H      26.76       2.33      34.80
H      22.72      36.98      31.79
H      19.78      38.12      33.22
H       5.35       2.67      35.01
H       7.58       0.71      32.01
H      10.63       1.79       0.24
H      12.50      38.50      35.96
H       8.36       3.72       0.19
H       6.09       3.95      37.12
H      26.79      20.01      14.26
H       0.43      17.01      16.24
H       3.49      24.08      15.15
H       5.34      20.97      17.30
H       1.25      24.03      13.21
H      27.48      22.07      13.00
H      12.56      20.81      17.80
H      14.70      23.76      15.67
H      17.78      16.70      16.79
H      19.62      19.81      14.63
H      15.60      16.78      18.77
H      12.59      18.31      17.68
C       0.63      38.38      12.85
C       0.98      37.63      11.69
C       2.15      36.85      11.60
C       2.94      36.73      12.78
C       2.57      37.36      13.98
C       1.45      38.23      14.00
C      28.02       0.34      12.84
C      27.70       1.19      11.74
C      26.46       1.87      11.69
C      25.55       1.73      12.76
C      25.86       0.95      13.90
C      27.08       0.23      13.89
C      14.92       0.40      25.93
C      15.27       1.15      27.09
C      16.44       1.93      27.17
C      17.22       2.05      26.00
C      16.86       1.42      24.80
C      15.74       0.55      24.78
C      13.73      38.43      25.94
C      13.41      37.59      27.04
C      12.17      36.91      27.09
C      11.26      37.05      26.02
C      11.58      37.83      24.88
C      12.79      38.55      24.89
C       7.78      25.93      38.38
C       8.12      27.09      37.63
C       9.30      27.18      36.85
C      10.08      26.00      36.73
C       9.71      24.80      37.36
C       8.60      24.78      38.23
C       6.59      25.94       0.35
C       6.26      27.04       1.19
C       5.02      27.09       1.87
C       4.12      26.02       1.73
C       4.43      24.88       0.96
C       5.65      24.89       0.23
C      22.07      12.85       0.41
C      22.41      11.69       1.15
C      23.58      11.61       1.93
C      24.37      12.78       2.05
C      24.00      13.98       1.42
C      22.88      14.00       0.55
C      20.88      12.84      38.44
C      20.55      11.74      37.59
C      19.31      11.69      36.91
C      18.41      12.76      37.05
C      18.72      13.90      37.82
C      19.94      13.89      38.55
C      23.82       8.30       3.68
C      23.89       8.73       5.03
C      24.67       6.61       5.77
C      24.56       6.07       4.46
C      24.13       6.94       3.42
C      25.16       5.83       6.83
C      25.86       5.74       9.11
C      26.18       4.37       8.99
C      25.99       3.74       7.73
C      25.51       4.47       6.62
C      25.38       3.92       5.32
C      24.92       4.72       4.24
C      26.69       3.67      10.10
C      23.48       9.22       2.65
C       9.53      30.48      35.10
C       9.60      30.05      33.75
C      10.38      32.17      33.01
C      10.27      32.71      34.32
C       9.84      31.84      35.36
C      10.87      32.95      31.95
C      11.57      33.04      29.67
C      11.89      34.41      29.79
C      11.70      35.04      31.05
C      11.22      34.31      32.16
C      11.09      34.86      33.46
C      10.63      34.06      34.54
C      12.40      35.12      28.68
C       9.19      29.56      36.13
C       2.39      35.10       8.30
C       2.46      33.75       8.73
C       3.24      33.01       6.61
C       3.13      34.32       6.07
C       2.69      35.36       6.94
C       3.73      31.95       5.83
C       4.43      29.67       5.74
C       4.75      29.79       4.37
C       4.56      31.05       3.74
C       4.08      32.16       4.47
C       3.94      33.46       3.92
C       3.49      34.54       4.72
C       5.25      28.67       3.67
C       2.05      36.13       9.22
C      16.68       3.68      30.48
C      16.75       5.03      30.05
C      17.53       5.77      32.17
C      17.42       4.46      32.71
C      16.98       3.42      31.84
C      18.02       6.83      32.95
C      18.72       9.11      33.04
C      19.04       8.99      34.41
C      18.85       7.73      35.04
C      18.37       6.62      34.31
C      18.23       5.32      34.86
C      17.78       4.24      34.06
C      19.54      10.10      35.12
C      16.34       2.65      29.56
C      18.59      38.03      21.43
C      19.73      38.77      21.81
C      20.71      38.49      19.64
C      19.58      37.75      19.20
C      18.52      37.53      20.11
C      21.81      38.70      18.78
C      23.99       0.78      18.42
C      24.02       0.31      17.09
C      22.91      38.39      16.64
C      21.79      38.16      17.47
C      20.67      37.43      17.02
C      19.56      37.24      17.88
C      25.11       0.58      16.21
C      17.66      37.72      22.30
C       4.28       0.71      17.37
C       5.45       0.03      16.97
C       6.43       0.29      19.14
C       5.26       0.97      19.61
C       4.19       1.15      18.71
C       7.53       0.10      19.99
C       9.72      38.04      20.35
C       9.74      38.49      21.69
C       8.63       0.40      22.14
C       7.50       0.61      21.31
C       6.35       1.29      21.78
C       5.23       1.45      20.94
C      10.83      38.21      22.57
C       3.36       1.03      16.50
C      25.72      17.37      38.06
C      26.88      16.97      38.75
C      27.86      19.14      38.48
C      26.70      19.61      37.80
C      25.63      18.71      37.61
C       0.39      19.99      38.68
C       2.57      20.35       0.75
C       2.60      21.69       0.29
C       1.48      22.14      38.38
C       0.36      21.31      38.16
C      27.79      21.78      37.47
C      26.67      20.94      37.31
C       3.68      22.57       0.57
C      24.80      16.50      37.75
C      11.44      21.42       0.75
C      12.59      21.80       0.02
C      13.56      19.64       0.29
C      12.43      19.19       1.02
C      11.37      20.10       1.24
C      14.67      18.78       0.08
C      16.85      18.42      38.01
C      16.88      17.09      38.48
C      15.77      16.64       0.39
C      14.64      17.46       0.61
C      13.51      17.01       1.34
C      12.40      17.86       1.53
C      17.97      16.21      38.20
C      10.52      22.29       1.05
C       2.63       0.54      28.85
C       2.98      38.63      27.69
C       4.15      37.85      27.60
C       4.94      37.73      28.78
C       4.57      38.36      29.98
C       3.45       0.39      30.00
C       1.44       1.34      28.84
C       1.12       2.19      27.74
C      28.46       2.87      27.69
C      27.55       2.73      28.76
C      27.86       1.95      29.90
C       0.50       1.23      29.89
C      16.92       1.40       3.09
C      17.27       2.15       4.25
C      18.44       2.93       4.34
C      19.22       3.05       3.16
C      18.86       2.42       1.96
C      17.74       1.55       1.94
C      15.73       0.60       3.10
C      15.41      38.59       4.20
C      14.17      37.91       4.25
C      13.26      38.05       3.18
C      13.58      38.83       2.04
C      14.79       0.71       2.05
C       9.78      26.93      15.54
C      10.12      28.09      14.79
C      11.30      28.18      14.01
C      12.08      27.00      13.89
C      11.71      25.80      14.52
C      10.60      25.78      15.39
C       8.59      26.94      16.35
C       8.26      28.04      17.19
C       7.02      28.09      17.87
C       6.12      27.02      17.73
C       6.43      25.88      16.96
C       7.65      25.89      16.23
C      24.07      13.85      16.41
C      24.41      12.69      17.15
C      25.58      12.61      17.93
C      26.37      13.78      18.05
C      26.00      14.98      17.42
C      24.88      15.00      16.55
C      22.88      13.84      15.60
C      22.55      12.74      14.76
C      21.31      12.69      14.07
C      20.41      13.76      14.21
C      20.72      14.90      14.99
C      21.94      14.89      15.71
C      25.82       9.30      19.68
C      25.89       9.73      21.03
C      26.67       7.61      21.77
C      26.56       7.07      20.46
C      26.13       7.94      19.42
C      27.16       6.83      22.83
C      27.86       6.74      25.11
C      28.18       5.37      24.99
C      27.99       4.74      23.73
C      27.51       5.47      22.62
C      27.38       4.92      21.32
C      26.92       5.72      20.24
C       0.11       4.67      26.10
C      25.48      10.22      18.65
C      11.53      31.48      12.26
C      11.60      31.05      10.91
C      12.38      33.17      10.17
C      12.27      33.71      11.48
C      11.84      32.84      12.52
C      12.87      33.95       9.11
C      13.57      34.04       6.84
C      13.89      35.41       6.95
C      13.70      36.04       8.21
C      13.22      35.31       9.32
C      13.09      35.86      10.62
C      12.63      35.06      11.70
C      14.40      36.12       5.84
C      11.19      30.56      13.29
C       4.39      36.10      24.30
C       4.46      34.75      24.73
C       5.24      34.01      22.61
C       5.13      35.32      22.07
C       4.69      36.36      22.94
C       5.73      32.95      21.83
C       6.43      30.67      21.74
C       6.75      30.79      20.37
C       6.56      32.05      19.74
C       6.08      33.16      20.47
C       5.94      34.46      19.92
C       5.49      35.54      20.72
C       7.25      29.67      19.67
C       4.05      37.13      25.22
C      18.68       4.68       7.64
C      18.75       6.03       7.21
C      19.53       6.77       9.33
C      19.42       5.46       9.87
C      18.98       4.42       9.00
C      20.02       7.83      10.11
C      20.72      10.11      10.20
C      21.04       9.99      11.57
C      20.85       8.73      12.20
C      20.37       7.62      11.47
C      20.23       6.32      12.02
C      19.77       5.24      11.22
C      21.54      11.10      12.28
C      18.34       3.65       6.72
C      20.59       0.19      37.43
C      21.73       0.93      37.81
C      22.71       0.65      35.64
C      21.58      38.75      35.20
C      20.52      38.53      36.11
C      23.81       0.86      34.78
C      25.99       1.78      34.42
C      26.02       1.31      33.09
C      24.91       0.55      32.64
C      23.79       0.33      33.47
C      22.67      38.43      33.02
C      21.56      38.24      33.88
C      27.11       1.58      32.21
C      19.66      38.72      38.30
C       6.28       1.71      33.37
C       7.45       1.03      32.97
C       8.43       1.29      35.14
C       7.26       1.97      35.61
C       6.19       2.15      34.71
C       9.53       1.10      35.99
C      11.72       0.20      36.35
C      11.74       0.65      37.69
C      10.63       1.40      38.14
C       9.50       1.61      37.31
C       8.35       2.29      37.78
C       7.23       2.45      36.94
C      12.83       0.37      38.57
C       5.36       2.03      32.50
C      27.72      18.37      15.23
C       0.30      17.97      15.91
C       1.28      20.14      15.64
C       0.12      20.61      14.96
C      27.63      19.71      14.77
C       2.39      20.99      15.84
C       4.57      21.35      16.75
C       4.60      22.69      16.29
C       3.48      23.14      15.54
C       2.36      22.31      15.32
C       1.21      22.78      14.63
C       0.09      21.94      14.47
C       5.68      23.57      16.57
C      26.80      17.50      14.91
C      13.44      22.42      16.75
C      14.59      22.80      16.02
C      15.56      20.64      16.29
C      14.43      20.19      17.02
C      13.37      21.10      17.24
C      16.67      19.78      16.08
C      18.85      19.42      15.17
C      18.88      18.09      15.64
C      17.77      17.64      16.39
C      16.64      18.46      16.61
C      15.51      18.01      17.34
C      14.40      18.86      17.53
C      19.97      17.21      15.36
C      12.52      23.29      17.05
N      24.91       0.80      14.87
N      26.06       2.55      10.57
N       2.49      36.07      10.52
N       3.26      37.11      15.11
N      10.63      37.99      23.90
N      11.77      36.22      28.20
N      16.78       2.71      28.26
N      17.54       1.67      23.67
N       3.48      23.90       0.79
N       4.63      28.20       2.55
N       9.63      28.26      36.07
N      10.40      23.67      37.11
N      17.77      14.88      37.98
N      18.92      10.57      36.23
N      23.92      10.52       2.71
N      24.69      15.11       1.67
N      24.32       7.90       6.00
N      25.35       6.40       8.05
N      10.04      30.88      32.78
N      11.07      32.38      30.73
N       2.89      32.78       7.90
N       3.92      30.73       6.40
N      17.18       6.00      30.88
N      18.21       8.05      32.38
N      20.73       0.13      20.92
N      22.91       0.55      19.20
N       6.46      38.69      17.85
N       8.64      38.27      19.57
N      27.89      17.86       0.09
N       1.49      19.57       0.52
N      13.59      20.91      38.66
N      15.76      19.20      38.24
N      26.91       1.80      30.87
N      28.06       3.55      26.57
N       4.49      37.07      26.52
N       5.26      38.11      31.11
N      12.63       0.15       1.06
N      13.77      37.22       5.36
N      18.78       3.71       5.42
N      19.54       2.67       0.83
N       5.48      24.90      16.79
N       6.63      29.20      18.55
N      11.63      29.26      13.23
N      12.40      24.67      14.27
N      19.77      15.88      15.14
N      20.92      11.57      13.39
N      25.92      11.52      18.71
N      26.69      16.11      17.67
N      26.32       8.90      22.00
N      27.35       7.40      24.05
N      12.04      31.88       9.94
N      13.07      33.38       7.90
N       4.89      33.78      23.90
N       5.92      31.73      22.40
N      19.18       7.00       8.04
N      20.21       9.05       9.54
N      22.73       1.13      36.92
N      24.91       1.55      35.20
N       8.46       0.85      33.85
N      10.64       0.43      35.57
N       1.32      18.86      16.09
N       3.49      20.57      16.52
N      15.59      21.91      15.82
N      17.76      20.20      15.40
O       1.14       0.02      15.18
O       0.01       1.36      10.72
O      15.44      38.75      23.60
O      14.30      37.42      28.06
O       8.29      23.60       0.03
O       7.16      28.06       1.36
O      22.58      15.18      38.76
O      21.45      10.72      37.42
O      25.81       2.64       5.09
O      24.90       4.18       2.99
O      27.69       4.24      10.81
O      22.82       8.75       1.57
O      11.52      36.14      33.70
O      10.61      34.60      35.79
O      13.40      34.54      27.97
O       8.54      30.03      37.21
O       4.37      33.69       2.64
O       3.46      35.79       4.18
O       6.26      27.97       4.24
O       1.39      37.21       8.75
O      18.66       5.08      36.14
O      17.75       2.99      34.60
O      20.55      10.81      34.55
O      15.68       1.57      30.03
O      20.61      36.96      15.74
O      18.51      36.49      17.42
O      26.35       0.74      16.75
O      16.82      37.36      23.17
O       6.28       1.74      23.07
O       4.11       2.03      21.45
O      12.06      38.05      22.03
O       2.52       1.41      15.63
O      27.72      23.07      37.03
O      25.55      21.46      36.74
O       4.92      22.03       0.74
O      23.97      15.62      37.37
O      13.46      15.73       1.80
O      11.37      17.40       2.28
O      19.20      16.75      38.05
O       9.68      23.17       1.42
O       3.14       1.02      31.18
O       2.01       2.36      26.72
O      17.44       0.91       0.76
O      16.30      38.42       5.22
O      10.29      24.60      16.03
O       9.16      29.06      17.36
O      24.58      16.18      15.92
O      23.45      11.72      14.58
O      27.81       3.64      21.09
O      26.90       5.18      18.99
O       1.11       5.24      26.81
O      24.82       9.75      17.57
O      13.52      37.14      10.86
O      12.61      35.60      12.95
O      15.40      35.54       5.13
O      10.54      31.03      14.37
O       6.37      34.69      18.64
O       5.46      36.79      20.18
O       8.26      28.97      20.24
O       3.39      38.21      24.75
O      20.66       6.08      13.30
O      19.75       3.99      11.76
O      22.55      11.81      11.71
O      17.68       2.57       7.19
O      22.61      37.96      31.74
O      20.51      37.49      33.42
O      28.35       1.74      32.75
O      18.82      38.36       0.33
O       8.28       2.74       0.23
O       6.11       3.03      37.45
O      14.06       0.21      38.03
O       4.52       2.41      31.63
O       1.15      24.07      14.19
O      27.55      22.46      13.90
O       6.92      23.03      16.74
O      25.97      16.62      14.53
O      15.46      16.73      17.80
O      13.37      18.40      18.28
O      21.20      17.75      15.21
O      11.68      24.17      17.42
