42

C       7.01      10.28       1.77
C       5.03       7.00       2.76
Zn       8.19       5.55       0.54
C       5.09       5.53       1.05
Zn       7.99       7.92       2.60
Zn      10.89       6.68       1.93
N       6.32       6.77       2.42
N       6.35       5.85       1.39
N      12.92       6.40       1.84
O       9.13       7.07       1.28
O       6.71       6.73      -1.52
O       7.96       4.88      -1.32
O      10.89       7.11       3.98
O       8.75       7.75       4.45
O       9.01       3.82       1.15
O      10.70       4.67       2.43
O       7.40       9.79       2.91
H      12.40       7.21       5.93
H      13.08       7.79       8.24
H       9.02       8.98       9.08
H       8.39       8.47       6.74
H       5.03       6.44      -3.36
H       4.31       5.74      -5.63
H       7.77       3.16      -5.88
H       8.47       3.90      -3.62
C       7.18       5.65      -1.99
C      10.36       7.81       6.18
C      11.67       7.60       6.63
C      12.04       7.91       7.93
C      11.10       8.44       8.85
C       9.78       8.61       8.40
C       9.41       8.31       7.09
C      13.59       6.22       3.01
C      13.63       6.47       0.70
C       6.78       5.20      -3.35
C       5.60       5.71      -3.92
C       5.21       5.31      -5.19
C      11.50       8.82      10.22
C       7.16       3.88      -5.35
C       7.56       4.28      -4.07
C       9.98       7.53       4.76
C      10.09       3.73       1.83
