42

Zn      15.52      14.38      15.62
Zn      15.71      12.02      13.56
Zn      12.81      13.25      14.22
N      17.39      13.16      13.74
N      17.35      14.08      14.77
N      10.78      13.54      14.31
H      10.63      12.14       7.92
H      14.68      10.96       7.07
H      15.31      11.47       9.42
O      14.58      12.87      14.88
O      16.99      13.21      17.68
O      15.74      15.06      17.48
O      12.81      12.82      12.18
O      14.95      12.19      11.71
O      14.69      16.12      15.01
O      13.01      15.26      13.73
O      16.30      10.15      13.25
H      18.68      13.50      19.52
H      15.23      16.03      19.78
H      19.39      14.20      21.79
H      15.93      16.77      22.04
H      11.30      12.72      10.23
C      16.52      14.28      18.15
C      13.35      12.13       9.97
C      12.03      12.34       9.53
C      11.66      12.02       8.23
C      18.12      15.92      23.47
C      13.92      11.32       7.76
C      14.29      11.62       9.07
C      10.11      13.71      13.15
C      10.07      13.46      15.46
C      16.92      14.73      19.51
C      18.10      14.23      20.08
C      18.49      14.63      21.35
C      17.72      15.54      22.10
C      16.54      16.05      21.51
C      16.15      15.65      20.23
C      13.73      12.41      11.40
C      13.62      16.21      14.33
C      16.69       9.65      14.39
C      18.67      12.94      13.40
C      18.61      14.40      15.11
