22

C      10.18       4.82      11.31
C      10.64       6.09      10.78
C      10.24       8.22       9.87
Ag       7.63       1.87      10.70
Ag       7.63       6.66      10.70
C       9.62       0.64       8.57
C       8.53       2.60       7.88
C       7.65       3.72       8.11
C       5.08       4.82      10.10
C       4.62       6.09      10.63
C       5.02       8.22      11.54
N       8.69       1.61       8.82
N       6.89       3.68       9.21
N       6.30       4.83       9.58
N       5.52       7.04      11.04
N       6.57       1.62      12.59
N       8.37       3.69      12.19
N       8.96       4.83      11.82
N       9.74       7.04      10.36
C       5.64       0.64      12.84
C       6.74       2.61      13.53
C       7.61       3.73      13.29
