9

N       6.47       8.01      29.25
O       8.49       8.62      33.84
O       6.77       8.62      30.38
N      10.37       5.77      31.69
Ag       7.63       7.37      32.11
O       6.18       5.52      32.52
N       4.90       5.77      32.53
N       8.79       8.01      34.96
O       9.08       5.52      31.70
