9

O      16.71       7.75      11.11
Ag      15.26       5.89      10.70
O      13.81       7.75      10.29
O      16.12       4.64       8.98
N      12.53       7.50      10.29
N      14.10       5.26      13.56
O      14.40       4.64      12.43
N      18.00       7.50      11.12
N      16.42       5.26       7.85
