22

C       3.37       4.60      22.83
Ag       5.42       5.68      24.98
Ag       9.57       3.29      24.97
C       5.61       4.58      22.13
C       7.02       4.76      22.38
C       9.25       6.42      24.39
C      10.57       6.18      24.93
C      12.22       4.77      25.82
N       4.67       4.92      23.08
N       7.37       5.43      23.48
N       8.65       5.36      23.86
N      10.96       4.93      25.33
N       5.73       6.73      26.86
N       6.62       4.14      26.47
N       7.32       3.06      26.09
N       8.84       1.28      24.62
C       5.36       8.02      27.10
C       6.51       6.09      27.80
C       7.04       4.78      27.56
C       6.70       2.01      25.56
C       7.57       0.98      25.02
C       9.61       0.26      24.12
