18

C       6.66       2.14       4.28
C       7.06       0.71       4.46
C       6.07      -0.23       4.79
C       8.39       0.28       4.32
C       8.12      -3.43       4.98
C       7.73      -2.00       4.80
C       8.71      -1.06       4.48
C       6.39      -1.57       4.95
H       9.13       1.92       4.02
H       5.19       0.04       4.89
H       5.66      -3.20       5.25
H       9.60      -1.33       4.37
O       5.49       2.48       4.48
O       7.59       2.92       3.88
O       9.41       1.15       4.00
O       9.30      -3.77       4.78
O       7.20      -4.21       5.38
O       5.38      -2.43       5.27
