14

C       4.43       6.06       6.02
C       4.37       7.58       6.29
H       2.58       7.18       6.78
H       5.26       7.88       6.87
C       4.44       9.87       5.22
C       4.38       8.36       4.94
H       2.59       8.77       4.44
O       5.58       5.57       5.80
O       3.31       5.48       6.05
O       3.20       7.88       7.05
H       5.27       8.06       4.37
O       5.58      10.36       5.47
O       3.21       8.06       4.18
O       3.31      10.46       5.17
