648

C       5.55       6.05       9.30
C       6.77       5.38       9.09
C       6.81       4.17       8.37
C       5.62       3.60       7.86
C       4.41       4.30       8.04
C       4.36       5.49       8.78
C       5.52       2.99       5.37
C       4.30       3.00       4.65
C       4.24       3.49       3.34
C       5.40       4.03       2.72
C       6.58       4.16       3.49
C       6.63       3.68       4.81
C       7.02       1.34       7.05
C       4.45       1.18       7.18
C       4.15       0.18       6.22
C       3.09      41.85       6.41
C       2.32      41.91       7.58
C       2.66       0.28       8.60
C       3.73       1.16       8.41
C       7.38       0.89       8.34
C       8.46      42.53       8.52
C       9.17      42.03       7.41
C       8.81      42.48       6.12
C       7.73       0.83       5.94
C       5.69       6.05      34.14
C       4.47       5.38      34.35
C       4.43       4.17      35.06
C       5.61       3.60      35.58
C       6.83       4.30      35.40
C       6.88       5.49      34.66
C       5.72       2.99      38.07
C       6.94       3.00      38.79
C       6.99       3.49      40.10
C       5.84       4.02      40.71
C       4.66       4.16      39.95
C       4.61       3.68      38.63
C       4.22       1.34      36.38
C       6.79       1.18      36.26
C       7.08       0.18      37.21
C       8.18      41.85      37.03
C       8.96      41.92      35.85
C       8.58       0.28      34.84
C       7.51       1.17      35.03
C       3.86       0.89      35.09
C       2.82      42.52      34.91
C       2.10      42.03      36.02
C       2.46      42.48      37.31
C       3.51       0.83      37.49
C      17.02      32.08      34.13
C      18.20      32.54      34.73
C      18.20      33.73      35.47
C      17.03      34.51      35.58
C      15.83      34.03      34.99
C      15.83      32.83      34.27
C      17.18      35.14      38.07
C      16.08      34.44      38.62
C      16.12      33.97      39.95
C      17.29      34.12      40.71
C      18.45      34.66      40.11
C      18.39      35.15      38.80
C      18.28      36.90      36.23
C      15.70      36.81      36.38
C      14.97      37.29      37.49
C      13.91      38.19      37.32
C      13.57      38.66      36.03
C      14.30      38.20      34.92
C      15.37      37.30      35.10
C      19.04      36.85      35.04
C      20.12      37.73      34.83
C      20.44      38.69      35.81
C      19.63      38.82      36.95
C      18.55      37.95      37.15
C      17.14      32.08       9.31
C      15.95      32.54       8.71
C      15.96      33.73       7.97
C      17.13      34.51       7.86
C      18.33      34.03       8.45
C      18.33      32.83       9.17
C      16.98      35.14       5.37
C      18.09      34.44       4.81
C      18.04      33.97       3.49
C      16.87      34.12       2.72
C      15.72      34.66       3.33
C      15.77      35.15       4.64
C      15.88      36.90       7.20
C      18.46      36.81       7.05
C      19.19      37.29       5.94
C      20.25      38.19       6.12
C      20.59      38.66       7.40
C      19.86      38.20       8.52
C      18.79      37.30       8.34
C      15.12      36.85       8.40
C      14.04      37.73       8.60
C      13.72      38.70       7.63
C      14.53      38.82       6.48
C      15.61      37.95       6.28
C      17.12      27.28      31.18
C      18.31      26.54      31.04
C      18.32      25.36      30.29
C      17.13      24.89      29.67
C      15.96      25.68      29.77
C      15.95      26.85      30.54
C      16.98      24.25      27.18
C      15.76      24.23      26.46
C      15.70      24.73      25.15
C      16.85      25.28      24.54
C      18.03      25.43      25.30
C      18.08      24.95      26.62
C      18.45      22.59      28.87
C      15.88      22.50      29.03
C      15.61      21.45      28.12
C      14.53      20.58      28.32
C      13.71      20.72      29.47
C      14.03      21.70      30.43
C      15.11      22.57      30.22
C      18.78      22.09      30.16
C      19.84      21.19      30.34
C      20.58      20.72      29.23
C      20.25      21.20      27.95
C      19.19      22.10      27.77
C      17.02      27.28      12.26
C      15.83      26.55      12.40
C      15.82      25.36      13.15
C      17.00      24.89      13.76
C      18.18      25.67      13.66
C      18.20      26.84      12.90
C      17.15      24.25      16.25
C      18.37      24.23      16.98
C      18.43      24.72      18.29
C      17.28      25.28      18.89
C      16.10      25.43      18.13
C      16.05      24.95      16.81
C      15.67      22.59      14.56
C      18.25      22.50      14.41
C      18.51      21.44      15.32
C      19.60      20.58      15.11
C      20.41      20.71      13.97
C      20.10      21.69      13.01
C      19.01      22.56      13.22
C      15.35      22.09      13.27
C      14.28      21.19      13.09
C      13.55      20.73      14.20
C      13.87      21.21      15.48
C      14.94      22.11      15.66
C       5.47      10.86      12.30
C       6.69      11.35      12.81
C       6.71      12.53      13.57
C       5.52      13.28      13.78
C       4.30      12.75      13.31
C       4.27      11.55      12.58
C       5.69      13.88      16.27
C       4.57      13.22      16.84
C       4.62      12.73      18.15
C       5.81      12.82      18.90
C       6.98      13.32      18.28
C       6.92      13.83      16.97
C       6.80      15.66      14.45
C       4.23      15.58      14.59
C       3.52      16.09      15.70
C       2.46      16.99      15.51
C       2.10      17.43      14.22
C       2.82      16.93      13.11
C       3.88      16.03      13.29
C       7.51      15.66      13.22
C       8.59      16.53      13.02
C       8.96      17.44      14.02
C       8.20      17.52      15.20
C       7.11      16.66      15.40
C       5.77      10.86      31.13
C       4.55      11.36      30.62
C       4.53      12.53      29.87
C       5.71      13.28      29.66
C       6.94      12.75      30.12
C       6.96      11.55      30.86
C       5.55      13.88      27.17
C       6.67      13.23      26.60
C       6.62      12.73      25.28
C       5.43      12.82      24.54
C       4.26      13.32      25.16
C       4.32      13.83      26.46
C       4.44      15.66      28.98
C       7.01      15.58      28.85
C       7.72      16.09      27.74
C       8.78      16.99      27.93
C       9.13      17.43      29.22
C       8.42      16.94      30.33
C       7.36      16.03      30.15
C       3.73      15.66      30.21
C       2.65      16.53      30.42
C       2.27      17.44      29.41
C       3.04      17.52      28.23
C       4.13      16.66      28.03
C       5.75       4.05      42.12
C       5.68       2.82      42.83
C       5.56       2.82       0.61
C       5.49       4.05       1.31
C       5.56       5.27       0.60
C       5.67       5.26      42.83
C       5.57       0.42       0.61
C       5.67       0.42      42.83
C       5.54      41.75       1.31
C       5.59      40.53       0.60
C       5.68      40.53      42.84
C       5.73      41.75      42.13
C      16.96      34.09       1.31
C      17.02      35.32       0.61
C      17.14      35.32      42.83
C      17.21      34.09      42.12
C      17.13      32.88      42.83
C      17.03      32.88       0.60
C      17.13      37.72      42.83
C      17.04      37.72       0.61
C      17.17      38.94      42.13
C      17.13      40.15      42.83
C      17.04      40.15       0.60
C      16.99      38.94       1.31
C      17.19      25.30      20.30
C      17.12      24.08      21.01
C      17.01      24.08      22.42
C      16.94      25.30      23.13
C      17.01      26.52      22.42
C      17.12      26.52      21.01
C      17.02      21.68      22.42
C      17.11      21.68      21.01
C      16.97      20.46      23.13
C      17.02      19.24      22.42
C      17.11      19.24      21.02
C      17.15      20.46      20.31
C       5.50      12.79      23.13
C       5.56      14.02      22.42
C       5.68      14.02      21.01
C       5.74      12.79      20.31
C       5.67      11.57      21.02
C       5.57      11.57      22.42
C       5.67      16.41      21.01
C       5.57      16.41      22.43
C       5.71      17.63      20.31
C       5.67      18.85      21.02
C       5.57      18.85      22.42
C       5.53      17.63      23.13
C       1.11      41.20       7.66
C      22.89      41.60       6.87
C      21.72      40.79       6.83
C      21.67      39.58       7.56
C      22.76      39.22       8.38
C       1.03      40.02       8.43
C      20.71      42.35       5.32
C      21.86       0.61       5.35
C      19.60       0.20       4.52
C      19.67       1.38       3.76
C      20.83       2.17       3.80
C      21.93       1.79       4.59
C      10.17      41.20      35.78
C      11.27      41.60      36.56
C      12.44      40.79      36.61
C      12.49      39.58      35.87
C      11.40      39.22      35.05
C      10.24      40.02      35.01
C      13.46      42.35      38.12
C      12.27       0.61      38.08
C      14.53       0.20      38.92
C      14.46       1.38      39.67
C      13.29       2.18      39.64
C      12.20       1.79      38.84
C      21.64      39.42      35.73
C      22.75      39.05      36.53
C       1.01      39.88      36.58
C       1.04      41.10      35.86
C      22.83      41.43      35.03
C      21.70      40.61      34.97
C       2.03      38.33      38.10
C       0.88      37.52      38.06
C       3.13      37.97      38.91
C       3.06      36.78      39.68
C       1.91      35.97      39.63
C       0.82      36.33      38.82
C      12.52      39.43       7.70
C      11.41      39.05       6.91
C      10.26      39.88       6.85
C      10.23      41.10       7.58
C      11.33      41.44       8.40
C      12.46      40.61       8.46
C       9.24      38.33       5.33
C      10.39      37.52       5.38
C       8.15      37.97       4.52
C       8.21      36.78       3.76
C       9.36      35.97       3.81
C      10.45      36.33       4.62
C      12.50      20.01      29.54
C      11.40      20.40      28.75
C      10.25      19.58      28.68
C      10.20      18.36      29.40
C      11.29      18.00      30.22
C      12.44      18.82      30.29
C       9.24      21.14      27.17
C      10.40      21.95      27.22
C       8.15      21.52      26.35
C       8.23      22.70      25.60
C       9.38      23.51      25.65
C      10.47      23.13      26.46
C      21.62      20.00      13.90
C      22.72      20.39      14.69
C       0.99      19.57      14.76
C       1.04      18.35      14.04
C      22.83      18.00      13.22
C      21.69      18.81      13.15
C       2.00      21.14      16.27
C       0.84      21.94      16.22
C       3.08      21.52      17.08
C       3.01      22.70      17.84
C       1.85      23.51      17.78
C       0.76      23.13      16.97
C      10.17      18.16      13.94
C      11.28      17.77      14.72
C      12.44      18.59      14.77
C      12.48      19.80      14.03
C      11.39      20.14      13.21
C      10.24      19.33      13.16
C      13.46      17.05      16.29
C      12.30      16.24      16.26
C      14.56      16.67      17.10
C      14.49      15.49      17.86
C      13.33      14.69      17.83
C      12.24      15.06      17.02
C       1.06      18.16      29.50
C      22.85      17.77      28.71
C      21.69      18.59      28.66
C      21.64      19.80      29.40
C      22.74      20.14      30.22
C       0.99      19.33      30.27
C      20.67      17.04      27.14
C      21.83      16.24      27.18
C      19.57      16.67      26.33
C      19.64      15.49      25.57
C      20.80      14.69      25.61
C      21.89      15.06      26.41
C       5.51       7.27      10.01
C       4.90       8.43       9.48
C       4.87       9.63      10.24
C       5.46       9.67      11.53
C       6.06       8.50      12.05
C       6.08       7.32      11.30
C       3.70      10.74       8.46
C       3.73       9.54       7.70
C       3.08      11.89       7.94
C       2.47      11.84       6.67
C       2.50      10.66       5.92
C       3.14       9.51       6.42
C       5.73       7.27      33.42
C       6.34       8.43      33.96
C       6.37       9.63      33.20
C       5.78       9.67      31.91
C       5.18       8.50      31.39
C       5.15       7.32      32.14
C       7.53      10.74      34.98
C       7.50       9.54      35.74
C       8.16      11.89      35.49
C       8.76      11.84      36.76
C       8.73      10.66      37.52
C       8.10       9.51      37.01
C      17.02      30.87      33.42
C      16.33      29.73      33.90
C      16.37      28.52      33.16
C      17.10      28.46      31.95
C      17.80      29.59      31.49
C      17.76      30.79      32.22
C      15.02      27.45      34.82
C      14.98      28.66      35.56
C      14.36      26.31      35.30
C      13.66      26.36      36.52
C      13.62      27.56      37.26
C      14.28      28.71      36.78
C      17.14      30.87      10.02
C      17.83      29.73       9.54
C      17.78      28.52      10.28
C      17.05      28.46      11.49
C      16.35      29.59      11.94
C      16.39      30.79      11.22
C      19.13      27.45       8.62
C      19.18      28.66       7.88
C      19.79      26.30       8.14
C      20.50      26.36       6.92
C      20.54      27.56       6.18
C      19.88      28.71       6.66
H       2.84      41.20       5.65
H       4.67       0.12       5.34
H       2.11       0.35       9.46
H       3.96       1.81       9.16
H       6.86       1.19       9.18
H       8.68      42.20       9.47
H       9.31      42.14       5.29
H       7.46       1.06       4.98
H       7.52       3.73       5.30
H       7.44       4.49       3.05
H       3.39       3.36       2.79
H       3.45       2.59       5.03
H       3.53       3.96       7.63
H       7.73       3.75       8.20
H       7.65       5.78       9.42
H       3.46       5.95       8.92
H       8.43      41.20      37.78
H       6.57       0.12      38.10
H       9.13       0.35      33.98
H       7.28       1.82      34.27
H       4.38       1.19      34.26
H       2.59      42.20      33.96
H       1.96      42.14      38.14
H       3.77       1.07      38.45
H       3.72       3.73      38.14
H       3.79       4.49      40.39
H       7.85       3.36      40.65
H       7.79       2.59      38.40
H       7.71       3.96      35.81
H       3.51       3.75      35.23
H       3.59       5.78      34.01
H       7.78       5.95      34.52
H      13.39      38.50      38.15
H      15.22      37.04      38.45
H      14.09      38.54      33.98
H      15.90      37.02      34.27
H      18.85      36.16      34.31
H      20.70      37.62      34.00
H      19.85      39.51      37.68
H      18.00      38.05      38.01
H      19.24      35.58      38.42
H      19.30      34.81      40.66
H      15.26      33.62      40.38
H      15.19      34.37      38.12
H      14.94      34.52      35.10
H      19.08      34.01      35.92
H      19.07      31.99      34.67
H      14.95      32.50      33.85
H      20.77      38.50       5.29
H      18.94      37.03       4.98
H      20.07      38.54       9.46
H      18.26      37.02       9.17
H      15.31      36.16       9.12
H      13.46      37.62       9.44
H      14.31      39.51       5.76
H      16.16      38.05       5.42
H      14.92      35.58       5.02
H      14.86      34.81       2.78
H      18.90      33.62       3.06
H      18.98      34.38       5.32
H      19.22      34.52       8.33
H      15.08      34.01       7.51
H      15.09      31.99       8.77
H      19.21      32.49       9.59
H      14.30      19.89      27.60
H      16.16      21.33      27.26
H      13.44      21.82      31.26
H      15.31      23.27      30.94
H      18.25      22.37      30.99
H      20.04      20.84      31.29
H      20.77      20.89      27.12
H      18.95      22.37      26.81
H      18.97      25.03      27.13
H      18.89      25.78      24.87
H      14.85      24.58      24.60
H      14.92      23.80      26.84
H      15.09      25.41      29.30
H      19.21      24.87      30.18
H      19.18      26.86      31.48
H      15.08      27.39      30.61
H      19.82      19.88      15.83
H      17.97      21.33      16.18
H      20.68      21.81      12.18
H      18.82      23.26      12.49
H      15.88      22.38      12.44
H      14.08      20.85      12.15
H      13.35      20.89      16.31
H      15.17      22.37      16.62
H      15.16      25.03      16.31
H      15.24      25.78      18.56
H      19.28      24.57      18.84
H      19.21      23.80      16.60
H      19.05      25.40      14.14
H      14.93      24.87      13.25
H      14.96      26.86      11.95
H      19.06      27.38      12.83
H       1.95      17.33      16.33
H       3.78      15.85      16.66
H       2.60      17.25      12.16
H       4.39      15.72      12.46
H       7.27      15.01      12.47
H       9.14      16.45      12.15
H       8.46      18.18      15.95
H       6.60      16.73      16.29
H       7.78      14.23      16.58
H       7.84      13.43      18.82
H       3.75      12.41      18.59
H       3.67      13.20      16.35
H       3.40      13.19      13.52
H       7.61      12.84      13.95
H       7.57      10.86      12.64
H       3.37      11.18      12.27
H       9.29      17.33      27.11
H       7.46      15.86      26.78
H       8.64      17.25      31.28
H       6.85      15.72      30.98
H       3.97      15.01      30.96
H       2.10      16.45      31.28
H       2.78      18.18      27.48
H       4.64      16.73      27.15
H       3.46      14.23      26.86
H       3.40      13.43      24.62
H       7.49      12.41      24.84
H       7.57      13.20      27.08
H       7.84      13.19      29.92
H       3.63      12.84      29.49
H       3.67      10.86      30.80
H       7.87      11.18      31.17
H       5.72       6.16      42.34
H       5.52       6.16       1.10
H       5.46      41.74       2.33
H       5.55      39.64       1.11
H       5.72      39.64      42.33
H       5.81      41.74      41.11
H      16.99      31.98       1.10
H      17.17      31.98      42.34
H      17.24      38.94      41.11
H      17.16      41.04      42.33
H      17.01      41.04       1.11
H      16.93      38.94       2.33
H      17.16      27.41      20.52
H      16.97      27.41      22.92
H      16.90      20.45      24.15
H      16.99      18.36      22.93
H      17.14      18.36      20.51
H      17.22      20.45      19.29
H       5.53      10.68      22.92
H       5.71      10.68      20.52
H       5.78      17.64      19.29
H       5.70      19.74      20.51
H       5.54      19.74      22.93
H       5.46      17.64      24.15
H       1.83      39.71       8.98
H      22.76      38.34       8.90
H      18.77      42.16       4.49
H      18.88       1.66       3.18
H      20.88       3.03       3.24
H      22.77       2.37       4.61
H       9.44      39.71      34.45
H      11.40      38.34      34.54
H      15.39      42.16      38.95
H      15.25       1.66      40.26
H      13.25       3.03      40.19
H      11.36       2.37      38.82
H      20.89      40.91      34.42
H      22.82      42.32      34.52
H       3.96      38.56      38.96
H       3.85      36.52      40.27
H       1.87      35.11      40.19
H      22.88      35.74      38.79
H      13.27      40.91       9.02
H      11.34      42.32       8.91
H       7.31      38.56       4.48
H       7.42      36.51       3.17
H       9.40      35.11       3.25
H      11.28      35.74       4.65
H      13.24      18.50      30.84
H      11.30      17.11      30.72
H       7.31      20.94      26.30
H       7.44      22.98      25.00
H       9.43      24.37      25.10
H      11.31      23.72      26.50
H      20.89      18.49      12.60
H      22.83      17.10      12.71
H       3.92      20.94      17.13
H       3.79      22.98      18.43
H       1.80      24.37      18.34
H      22.81      23.71      16.94
H       9.44      19.64      12.61
H      11.38      21.03      12.69
H      15.40      17.26      17.13
H      15.28      15.22      18.45
H      13.29      13.84      18.39
H      11.40      14.47      17.00
H       1.80      19.64      30.83
H      22.74      21.03      30.74
H      18.73      17.25      26.30
H      18.85      15.22      24.98
H      20.84      13.83      25.05
H      22.73      14.47      26.43
H       6.51       6.49      11.72
H       6.47       8.50      12.98
H       3.05      12.75       8.49
H       2.01      12.68       6.30
H       2.06      10.63       4.99
H       3.15       8.65       5.87
H       4.73       6.49      31.72
H       4.77       8.50      30.45
H       8.19      12.75      34.94
H       9.22      12.68      37.14
H       9.17      10.63      38.44
H       8.09       8.65      37.56
H      18.27      31.60      31.86
H      18.33      29.56      30.61
H      14.39      25.43      34.77
H      13.18      25.53      36.88
H      13.11      27.60      38.15
H      14.25      29.58      37.33
H      15.89      31.60      11.57
H      15.82      29.56      12.82
H      19.76      25.43       8.67
H      20.97      25.53       6.57
H      21.05      27.59       5.30
H      19.91      29.57       6.12
N       5.52       1.62       1.25
N       5.72       1.62      42.19
N      17.18      36.52      42.19
N      16.99      36.52       1.25
N      16.97      22.87      23.06
N      17.16      22.87      20.37
N       5.71      15.22      20.37
N       5.52      15.22      23.06
N      20.68      41.21       6.05
N       0.00       0.20       6.13
N      13.48      41.21      37.38
N      11.23       0.20      37.31
N       2.05      39.48      37.37
N      22.74      37.91      37.27
N       9.23      39.48       6.07
N      11.43      37.91       6.17
N       9.21      19.99      27.89
N      11.43      21.54      28.01
N       2.02      19.99      15.54
N      22.70      21.54      15.43
N      13.48      18.18      15.55
N      11.27      16.64      15.47
N      20.65      18.18      27.88
N      22.86      16.63      27.96
N       4.28      10.73       9.69
N       4.33       8.45       8.24
N       6.96      10.73      33.75
N       6.90       8.45      35.20
N      15.71      27.44      33.66
N      15.64      29.74      35.07
N      18.44      27.43       9.78
N      18.52      29.74       8.37
Si       5.66       2.28       6.86
Si       5.58       2.28      36.57
Si      17.04      35.84      36.56
Si      17.12      35.84       6.87
Si      17.12      23.56      28.69
Si      17.01      23.56      14.74
Si       5.56      14.60      14.77
Si       5.68      14.60      28.66
