117

Zn       3.50       5.20       7.43
Zn       6.53       5.20       7.43
H       7.08       9.28       6.68
H       2.19       1.26       6.94
H       1.32       6.49       9.08
H       1.23       3.09       4.94
H       8.73       3.07       4.97
H       4.98       3.19       3.33
H       6.39       7.56      10.30
H       6.54       8.03      12.06
H       5.77       9.12      10.88
H       1.06       9.91       6.28
H       2.77       9.67       5.73
H       1.88       8.36       6.60
H       1.60       8.50      10.73
H       3.00       9.60      10.53
H       2.93       8.01       9.63
H       0.72       1.33       9.12
H       2.23       1.12      10.08
H       2.00       2.58       9.06
H       8.17       6.36      11.39
H       9.90       6.45      10.97
H       8.94       4.93      10.66
H       2.05       7.00       4.73
H       0.47       6.61       5.48
H       0.59       6.85       3.71
H       7.73       3.87       3.01
H       9.38       4.52       2.61
H       7.94       5.59       2.54
H       6.12       2.00      11.95
H       4.60       2.09      10.94
H       6.12       2.89      10.44
H       2.55       2.36      12.57
H       2.26       1.40      14.11
H       2.61       0.57      12.55
H       3.81       1.50       2.04
H       4.64       0.70       0.67
H       5.63       1.44       1.96
H       6.21       9.16       4.13
H       6.58       8.38       2.57
H       6.88       7.50       4.14
H       2.40       8.01       2.55
H       1.94       8.86       1.01
H       2.39       9.80       2.47
H       2.96       8.59      12.84
H       3.32       9.52      14.29
H       4.63       9.29      13.13
H       8.62      -0.11       7.59
H       8.14       1.44       8.43
H       9.22       1.46       6.99
C       4.98       2.63       7.43
C       4.51       6.31      13.50
C       4.55       2.61      14.13
C       4.70       2.90       0.66
C       4.78       4.11       1.38
C       4.67       5.36       0.71
C       4.60       6.57       1.44
C       4.25       7.77       0.78
C       4.17       7.48      14.24
C       4.92       4.11       2.76
C       4.99       5.31       3.45
C       5.02       5.26       4.86
C       4.85       6.54       2.82
C       3.91       0.56       8.10
C       5.00       1.21       7.53
C       6.14       0.48       7.14
C       6.25       9.84       7.10
C       5.07       9.20       7.51
C       4.04       9.93       8.09
C       2.52       9.97       7.90
C       2.44       0.77       7.91
C       9.27       4.34       6.63
C       5.05       7.78       7.44
C       9.25       5.87       8.39
C       0.78       5.90       8.36
C       0.76       4.34       6.64
C       0.81       4.10       5.16
C       9.17       4.07       5.16
C       5.00       5.16      10.00
C       4.73       6.33      12.11
C       4.99       5.13      11.43
C       5.04       3.89      12.08
C       4.74       3.84      13.45
C       4.61       5.06      14.17
C       5.89       8.06      11.16
C       2.04       9.45       6.54
C       2.35       8.88      10.00
C       1.81       1.49       9.12
C       8.92       6.04      10.64
C       1.11       6.43       4.60
C       8.41       4.74       3.10
C       5.48       2.65      11.31
C       2.85       1.46      13.16
C       4.69       1.56       1.37
C       6.20       8.19       3.59
C       2.61       8.88       1.89
C       3.75       8.78      13.58
C       8.34       0.96       7.44
N       8.55       5.19       7.42
N       1.47       5.19       7.42
O       3.84       3.23       7.43
O       6.11       3.23       7.43
O       3.89       5.25       5.47
O       6.16       5.25       5.47
O       3.91       7.17       7.43
O       6.18       7.17       7.43
O       3.87       5.16       9.40
O       6.14       5.16       9.40
O       4.62       7.50      11.38
O       1.66       9.51       8.94
O       8.56       6.55       9.37
O       1.45       5.08       4.34
O       8.57       5.13       4.44
O       4.24       1.46      13.43
O       4.88       7.70       3.58
O       3.97       8.91       1.51
O       7.24       1.10       6.57
