36

Co       0.00       6.80       9.40
Co       0.00      11.99       9.40
Co       0.00       9.40      11.99
Co       0.00       9.40       6.80
N       1.46       7.87      11.85
N       2.48       7.67      12.69
N       1.46      10.93       6.95
N       2.48      11.12       6.11
N      -1.46       7.87       6.95
N      -2.48       7.67       6.11
N      -1.46      10.93      11.85
N      -2.48      11.12      12.69
N      -1.46      11.85      10.93
N      -2.48      12.69      11.12
N      -1.46       6.95       7.87
N      -2.48       6.11       7.67
N       1.46       6.95      10.93
N       2.48       6.11      11.12
N       1.46      11.85       7.87
N       2.48      12.69       7.67
N      -1.46      10.93       6.95
N      -2.48      11.12       6.11
N      -1.46       7.87      11.85
N      -2.48       7.67      12.69
N       1.46      10.93      11.85
N       2.48      11.12      12.69
N       1.46       7.87       6.95
N       2.48       7.67       6.11
N       1.46       6.95       7.87
N       2.48       6.11       7.67
N       1.46      11.85      10.93
N       2.48      12.69      11.12
N      -1.46      11.85       7.87
N      -2.48      12.69       7.67
N      -1.46       6.95      10.93
N      -2.48       6.11      11.12
