36

N       7.87      17.34      11.85
N       7.67      16.32      12.69
N      10.93      17.34       6.95
N      11.12      16.32       6.11
Co       9.40      18.80       6.80
Co       9.40      18.80      11.99
Co       6.80      18.80       9.40
Co      11.99      18.80       9.40
N       6.95      20.26      10.93
N       6.11      21.28      11.12
N      11.85      20.26       7.87
N      12.69      21.28       7.67
N      11.85      17.34      10.93
N      12.69      16.32      11.12
N       6.95      17.34       7.87
N       6.11      16.32       7.67
N      10.93      17.34      11.85
N      11.12      16.32      12.69
N       7.87      17.34       6.95
N       7.67      16.32       6.11
N      10.93      20.26       6.95
N      11.12      21.28       6.11
N       7.87      20.26      11.85
N       7.67      21.28      12.69
N      11.85      17.34       7.87
N      12.69      16.32       7.67
N       6.95      17.34      10.93
N       6.11      16.32      11.12
N       6.95      20.26       7.87
N       6.11      21.28       7.67
N      11.85      20.26      10.93
N      12.69      21.28      11.12
N       7.87      20.26       6.95
N       7.67      21.28       6.11
N      10.93      20.26      11.85
N      11.12      21.28      12.69
