36

Co       6.80       9.40       0.00
Co      11.99       9.40       0.00
N       7.87       6.95      -1.46
N       7.67       6.11      -2.48
Co       9.40       6.80       0.00
Co       9.40      11.99       0.00
N       7.87      11.85       1.46
N       7.67      12.69       2.48
N      10.93       6.95       1.46
N      11.12       6.11       2.48
N      10.93      11.85      -1.46
N      11.12      12.69      -2.48
N      11.85      10.93      -1.46
N      12.69      11.12      -2.48
N       6.95       7.87      -1.46
N       6.11       7.67      -2.48
N       6.95      10.93       1.46
N       6.11      11.12       2.48
N      11.85       7.87       1.46
N      12.69       7.67       2.48
N      10.93      11.85       1.46
N      11.12      12.69       2.48
N       7.87       6.95       1.46
N       7.67       6.11       2.48
N      10.93       6.95      -1.46
N      11.12       6.11      -2.48
N       7.87      11.85      -1.46
N       7.67      12.69      -2.48
N       6.95       7.87       1.46
N       6.11       7.67       2.48
N      11.85      10.93       1.46
N      12.69      11.12       2.48
N      11.85       7.87      -1.46
N      12.69       7.67      -2.48
N       6.95      10.93      -1.46
N       6.11      11.12      -2.48
