16

H       6.25       4.45       5.78
C       4.84       6.20       7.35
H       4.38       8.36       3.38
O       4.08       7.08       7.82
H       6.43       4.55       3.34
C       5.80       6.72       1.79
C       5.85       5.31       5.25
C       5.92       5.35       3.86
C       5.41       6.46       3.17
C       4.78       7.49       3.88
C       4.72       7.46       5.25
C       5.23       6.35       5.95
O       5.45       7.84       1.31
H       4.23       8.28       5.76
O       6.74       6.03       1.29
O       5.01       5.07       7.93
