16

C       5.62       7.73      13.08
C       5.03       6.26      11.25
C       5.77       7.86      14.44
C       6.01       6.73      15.24
C       6.23       5.48      14.65
C       6.06       5.35      13.28
C       5.68       6.47      12.51
O       7.00       6.21      17.30
O       5.10       5.10      10.75
O       4.17       7.12      10.86
C       6.17       6.93      16.65
H       5.36       8.61      12.50
H       5.66       8.85      14.86
H       6.47       4.61      15.25
H       6.12       4.36      12.85
O       5.72       8.01      17.10
