16

H       0.70       1.15       6.11
H       0.58       0.75       3.68
H       4.52       2.46       3.23
H       4.69       2.73       5.59
C       3.67       2.17       3.84
C       3.78       2.31       5.20
O       1.81       2.69       8.06
C       2.73       1.92       6.04
C       2.69       1.00       1.95
O       1.69       0.53       1.32
O       3.88       0.75       1.59
C       1.54       1.41       5.48
C       1.46       1.22       4.10
C       2.84       2.27       7.45
O       4.01       2.50       7.88
C       2.54       1.57       3.28
