16

O      -0.26       7.84      17.56
O      -1.16       5.81      17.39
O       1.45       6.70      10.84
H      -0.02       4.13      13.29
H      -0.14       4.37      15.68
O       0.18       4.88      11.02
C       0.60       5.98      11.47
H       0.89       8.33      12.87
H       0.65       8.61      15.30
C      -0.34       6.70      17.00
C       0.14       5.11      13.71
C       0.10       5.24      15.08
C       0.23       6.51      15.67
C       0.55       7.62      14.87
C       0.65       7.47      13.48
C       0.40       6.22      12.89
