18

O      11.76       2.78       8.18
H       7.16       6.74       8.17
O       6.92       2.77       8.01
C       8.11       4.80       8.24
O      12.90       4.76       8.10
C       6.83       4.04       8.12
C      10.53       4.81       8.29
C       9.31       6.90       8.24
C       9.31       8.39       8.12
O       8.17       8.96       8.03
C      10.53       6.21       8.27
O      10.45       8.97       8.07
C      11.83       4.06       8.20
C       8.10       6.20       8.23
O       5.74       4.72       8.11
C       9.32       4.10       8.28
H       9.33       3.02       8.27
H      11.47       6.75       8.26
