18

C       4.22      -0.39      14.30
C       4.26       1.13      12.31
C       3.12       3.27      12.34
C       1.85       4.02      14.37
C       3.12       1.86      14.32
H       2.80       1.67      15.34
O       4.97       1.63       9.67
O       3.70       3.53       9.63
H       2.80       4.18      11.84
C       3.88       2.31      11.66
C       2.74       3.04      13.67
H       4.84       0.38      11.78
O       1.44       3.70      15.54
O       3.77      -0.58      15.49
O       1.52       5.07      13.72
O       4.90      -1.23      13.61
C       3.88       0.90      13.64
C       4.22       2.51      10.21
