18

H      12.04       3.89       0.14
O      14.21       3.98       5.80
C      13.12       4.68       1.83
O      14.21       6.78       1.80
H      12.03       1.43       3.67
O      13.02       2.04       5.82
C      13.11       3.30       3.82
O      10.69       1.86      -0.05
C      13.49       5.95       1.14
C      11.95       2.55       1.82
C      11.07       1.56       1.13
O      13.06       6.10      -0.06
C      13.48       3.09       5.25
C      12.34       3.72       1.16
C      13.50       4.47       3.16
H      14.08       5.22       3.69
C      12.34       2.33       3.15
O      10.75       0.50       1.79
