18

O       6.89      -2.35      15.24
H      11.44      -0.82      18.94
H       7.13      -0.97      18.96
C      10.51      -1.45      17.10
O      11.72      -2.25      15.24
C       8.08      -1.53      17.11
C      11.80      -1.76      16.42
O       5.73      -1.75      17.11
C       9.28      -0.83      19.10
C       9.28      -0.43      20.54
O      10.42      -0.32      21.11
C       6.80      -1.90      16.43
H       9.31      -2.08      15.42
C      10.50      -1.00      18.42
O       8.14      -0.27      21.10
C       9.30      -1.71      16.44
O      12.88      -1.56      17.08
C       8.07      -1.09      18.44
