141

Cr       4.52       4.03       9.35
Cr      13.72       7.00       9.37
Cr      12.05       3.99       9.46
Cr       6.57       9.42      18.64
Cr       9.90       8.97       0.10
Cr       8.31       6.43      18.77
H       9.92       8.72       4.23
H      11.53       8.51       3.52
H      11.01       8.69       6.26
H       8.15       6.78       4.32
H       9.02       7.47       6.32
H      11.41       4.40       5.56
H       8.99       5.80       6.79
H      11.53       1.82       6.12
H       4.64       1.92       3.41
H       4.82       1.93       5.74
H       5.15       4.26       5.61
H       5.32       4.37       3.13
H      15.37       8.48       3.33
H      15.45       8.49       5.74
H      10.97       4.37      13.31
H      10.85       4.67      15.69
H      11.57       8.90      15.22
H      11.80       8.58      12.79
H       5.12       1.68      12.82
H       5.20       1.62      15.21
H      11.80       2.20      12.94
H       5.42       8.84      12.43
H       5.75       9.13      14.80
H       6.39       4.88      15.29
H       6.03       4.57      12.89
H       7.99       1.95       4.32
H       6.56       2.92       4.62
H       6.79       2.27       2.99
H       7.47       4.61       2.85
H       8.93       3.68       2.80
H       9.32       4.04       5.19
H       7.72       4.69       5.39
H       8.36       0.60       2.53
H       8.43       2.11       1.45
H       8.89       0.54       0.84
H      10.84       2.18       1.56
H      10.71       0.42       1.98
H      10.27       0.75       4.26
H      10.27       2.43       4.07
H      14.16       6.71       0.61
H       3.76       5.04       1.06
H      13.89       5.74      18.35
H      12.42       4.31       1.37
H      11.83       5.91       0.83
H      12.97       6.98       2.87
H      13.57       5.36       3.29
C       4.76       6.33       7.30
C      11.37       6.16       7.52
C       2.85       2.37       7.46
C       5.03       6.47      11.23
C      11.56       6.20      11.45
C       3.00       2.44      11.36
C      10.79       8.02       4.18
C      11.40       7.88       5.60
C       9.05       6.16       4.58
C      11.44       5.59       3.72
C      10.27       6.62       3.62
C      10.99       6.49       6.13
C       9.45       6.48       6.03
C      11.73       5.41       5.25
C       1.43       1.76       5.50
C       1.27       1.60       4.10
C       2.49       1.60       3.31
C       3.71       1.85       3.95
C       3.83       1.86       5.31
C       2.69       1.88       6.10
C       5.14       5.22       5.11
C       5.23       5.27       3.72
C       5.18       6.51       3.09
C       4.73       7.61       3.83
C       4.73       7.59       5.20
C       5.00       6.39       5.87
C      11.11       5.37      13.71
C      11.08       5.53      15.07
C      11.19       6.81      15.64
C      11.49       7.91      14.81
C      11.58       7.73      13.42
C      11.34       6.47      12.87
C       4.19       1.76      13.36
C       4.23       1.77      14.73
C       3.05       1.88      15.47
C       1.82       2.05      14.82
C       1.77       2.05      13.44
C       2.96       1.95      12.71
C       5.66       7.97      13.04
C       5.81       8.13      14.39
C       6.02       7.01      15.22
C       6.18       5.74      14.66
C       6.01       5.58      13.30
C       5.67       6.69      12.50
C       2.69       1.02       1.95
C       9.80       6.80       2.21
C       5.75       6.80       1.76
C       3.08       1.43      16.84
C      10.61       7.01      16.96
C       6.20       7.25      16.63
C       8.58       4.68       4.68
C       8.09       3.96       3.45
C       7.32       2.70       3.86
C      10.76       1.54       3.67
C      10.37       1.40       2.19
C       8.92       1.17       1.77
C      12.71       5.91       2.86
C      12.63       5.40       1.39
C      13.91       5.63       0.61
O       4.04       2.63       7.86
O       5.03       5.23       7.91
O      15.05       7.26       7.80
O      12.31       6.84       8.01
O      11.04       5.01       7.96
O       1.82       2.84       8.04
O       4.14       2.71      10.90
O       5.13       5.31      10.73
O       4.17       7.34      10.84
O      12.41       6.92      10.82
O      11.14       5.09      10.99
O       1.92       2.91      10.86
O       2.77       5.01       9.39
O       5.43       7.93       1.30
O       1.70       0.55       1.32
O       3.91       0.78       1.59
O      10.40       7.76       1.55
O       9.49       5.72       1.59
O       6.75       6.11       1.29
O       5.74       8.34      17.06
O       1.99       0.96      17.30
O       4.22       1.18      17.35
O      10.69       8.16      17.53
O       9.80       6.12      17.35
O       7.04       6.52      17.26
O       8.30       8.42      18.77
F      11.63       2.17      15.50
F      12.78       8.02       5.53
F      11.02       4.37       3.27
F      13.09       5.44       5.52
