37

O       0.77       2.75       2.92
C       0.29       3.91       2.52
O      -0.06       4.84       3.31
C      -0.32      -3.57      -3.37
O      -0.31      -2.63      -4.30
O      -0.71      -4.76      -3.60
F       1.24      -1.67      -0.56
F       1.83      -1.63      -2.71
F      -0.70      -3.50      -1.05
F       1.32      -4.13      -1.80
C       0.04       4.14       1.07
C       0.03       2.86       0.26
C       1.02       2.57      -0.70
C       2.24       3.48      -0.82
C       0.86       1.44      -1.55
C       1.79       1.29      -2.73
C      -0.20       0.51      -1.30
H      -0.96       4.63       0.95
H       0.77       4.88       0.69
C      -0.35      -0.76      -2.13
H       1.94       4.44      -1.28
H       1.45       0.58      -3.49
C      -2.25      -0.18       0.11
H       2.80       0.98      -2.38
H       1.87       2.26      -3.27
C       0.76      -1.81      -1.85
H       2.67       3.66       0.19
C       0.26      -3.26      -2.01
H       3.06       3.05      -1.41
C      -1.12       0.78      -0.25
C      -1.01       1.96       0.48
H      -0.39      -0.48      -3.20
H      -1.34      -1.23      -1.97
H      -1.75       2.18       1.25
H      -2.97      -0.25      -0.72
H      -1.83      -1.18       0.34
H      -2.81       0.16       1.01
