37

C       3.40       5.38      25.51
C      -2.77      10.57      30.94
H       3.09       4.86      27.52
C       2.07       6.77      27.22
H       1.61       7.98      24.30
C       0.98       7.37      24.98
C       2.53       5.40      26.73
C       0.84       8.88      27.01
H       1.10       6.30      24.73
H       1.62       4.80      26.54
H      -0.02      11.00      28.71
C      -2.36       9.29      30.28
H       2.06       9.22      30.99
H       0.70       8.03      31.17
C       1.60       8.11      29.21
C       1.69       8.22      30.71
H       2.38       7.46      31.14
H       2.80       6.34      29.19
H       0.08      10.12      30.18
C       2.25       7.04      28.58
F      -1.68       8.31      28.24
F      -2.31      10.45      28.18
F      -1.58       8.54      31.15
F      -3.50       8.56      30.03
O      -3.59      11.39      30.37
C       1.34       7.69      26.42
O      -2.39      10.91      32.13
H      -0.09       7.60      24.80
H       0.32      10.96      26.58
C       0.22       9.95      26.14
H       0.74      10.02      25.16
C       0.83       9.02      28.43
H      -0.85       9.73      25.97
C      -0.15       9.98      29.11
O       4.37       6.27      25.39
O       3.17       4.47      24.64
C      -1.62       9.51      28.94
