37

C       5.87       5.33       6.09
O       6.90       4.76       6.63
O       5.96       5.53       4.82
C       3.30      12.80      12.00
O       2.41      11.83      11.98
O       3.27      13.77      12.84
F       6.00      11.45       9.79
F       5.01      10.54      11.57
F       4.06      13.57       9.91
F       5.55      13.34      11.56
C       4.61       5.59       6.86
C       4.64       6.89       7.66
C       4.38       6.93       9.05
C       4.37       5.63       9.83
C       4.05       8.17       9.67
C       3.54       8.15      11.10
H       4.39       4.70       7.47
H       3.78       5.65       6.15
H       3.44       5.06       9.61
H       5.25       5.01       9.55
C       4.57       9.33       7.56
C       4.78      10.57       6.73
C       4.77       8.09       6.95
C       4.15       9.39       8.92
C       3.74      10.74       9.52
H       3.07       9.09      11.44
H       4.45       5.77      10.92
H       3.81      11.07       6.54
H       5.47      11.26       7.24
H       5.22      10.33       5.74
H       5.00       8.05       5.89
H       2.75       7.38      11.20
H       4.37       7.92      11.79
H       2.74      10.63       9.99
C       4.80      11.35      10.48
C       4.42      12.78      10.98
H       3.53      11.48       8.73
