37

C       6.44       1.92      22.84
C      10.80      -3.06      15.96
O      10.89      -3.75      16.97
O      10.44      -3.64      14.74
F       7.16      -0.96      20.60
F       5.73       0.72      20.26
F       7.95       0.11      23.00
F       5.76      -0.31      22.81
C      11.06      -1.58      16.05
C      10.20      -0.92      17.11
C       8.89      -0.46      16.86
C       8.17      -0.82      15.57
C       8.22       0.33      17.84
C       6.86       0.92      17.49
C       8.81       0.52      19.13
C       8.07       1.25      20.26
C       6.93       0.38      20.86
C       6.78       0.53      22.39
C      10.08      -0.07      19.39
C      10.72      -0.02      20.76
C      10.76      -0.74      18.37
H       8.04       0.08      14.94
H       7.67       2.22      19.90
H       8.76       1.56      21.06
H       8.70      -1.58      14.96
H       7.18      -1.26      15.80
H       6.54       1.74      18.15
H       6.89       1.37      16.48
H       6.09       0.12      17.51
H      11.01       1.03      21.00
H      10.03      -0.41      21.52
H      11.64      -0.64      20.81
H      11.75      -1.15      18.57
H      10.89      -1.09      15.06
O       7.16       2.50      23.63
O       5.25       2.52      22.38
H      12.14      -1.42      16.27
