37

C       3.13       5.52      22.07
C       2.97      12.60      15.43
O       2.88      11.64      14.53
O       2.51      13.76      15.25
F       3.61      11.32      18.83
F       1.77      11.30      17.56
F       5.07      12.10      16.37
F       3.72      13.50      17.47
C       2.09       5.80      21.03
C       2.47       6.80      19.95
C       1.55       7.11      18.91
C       0.24       6.35      18.87
H       1.17       6.16      21.56
H       1.84       4.84      20.54
C       1.89       8.09      17.92
H       0.44       5.26      18.79
C       3.16      11.19      17.52
C       3.75      12.35      16.69
H      -0.35       6.54      19.79
H      -0.42       6.59      18.02
C       5.54       8.75      18.91
C       4.11       8.30      18.94
C       0.85       8.47      16.88
C       3.74       7.39      19.93
H       1.15       9.21      16.13
H       0.53       7.58      16.31
H      -0.00       8.94      17.40
H       4.48       7.11      20.67
H       3.16       9.62      15.96
H       4.65       9.78      16.78
H       5.99       8.30      18.01
H       5.63       9.85      18.87
H       6.12       8.41      19.80
O       3.46       6.47      22.93
C       3.18       8.69      17.95
O       3.59       4.35      22.13
C       3.56       9.80      16.97
