84

C       0.98       9.92       7.21
C       1.00      11.22       7.78
C       0.99      12.40       7.00
C       1.00      12.24       5.59
C       0.98      10.98       4.96
C       1.00       9.83       5.80
C       0.78       8.78       8.03
C       0.78      10.84       3.56
C       0.78      13.68       7.58
C       9.15       0.97      11.61
C       9.16      -0.44      11.45
C       9.15      -1.33      12.54
C       9.16      -0.77      13.84
C       9.15       0.62      14.07
C       9.16       1.47      12.94
C       9.22       1.84      10.49
C       9.22       1.16      15.39
C       9.22      -2.74      12.35
C       0.18      11.84       1.43
C       0.81      12.55       0.38
C       0.34       1.46      18.14
C       9.22       0.70      17.81
C       8.50       0.09      18.88
C       8.98      11.19       1.15
C       0.18       6.43       8.22
C       0.81       5.17       8.13
C       0.33       4.07       8.85
C       9.22       4.17       9.68
C       8.50       5.40       9.67
C       8.98       6.52       8.93
C       0.19      15.02       9.51
C       0.81      15.57      10.65
C       0.33      -5.27      11.24
C       9.22      -4.61      10.74
C       8.50      -5.23       9.68
C       8.98      15.58       9.08
H       0.91      13.08       5.01
H       0.91       8.91       5.36
H       0.91      11.30       8.79
H       9.22      -1.41      14.64
H       9.22       2.48      13.09
H       9.22      -0.81      10.50
H       0.92       1.87      17.41
H       1.69      13.05       0.55
H       8.29      -0.30      16.35
H       1.37      12.61       2.86
H       0.92       3.23       8.87
H       1.69       5.07       7.62
H       8.29       3.40      11.28
H       1.37       7.29       6.84
H       0.92      -4.84      11.95
H       1.70      15.18      10.99
H       8.30      -2.84      10.60
H       1.37      13.39       9.46
N       7.28      -0.56      18.55
N       8.20      10.79       2.28
N       8.88       0.46      16.51
N       0.76      11.87       2.67
N       7.28       5.44      10.41
N       8.20       7.69       8.71
N       8.87       3.16      10.54
N       0.76       7.49       7.58
N       7.28      -4.62       9.28
N       8.21      14.81       8.18
N       8.88      -3.36      11.19
N       0.77      13.93       8.92
O       0.62       9.59       3.05
O       0.62       8.96       9.36
O       0.63      14.75       6.75
O       9.48       2.49      15.53
O       9.48       1.30       9.27
O       9.48      -3.53      13.43
O       6.25      -0.05      19.04
O       7.87       9.58       2.30
O       7.31      -1.80      18.74
O       7.21      11.53       2.47
O       6.25       5.61       9.71
O       7.87       8.31       9.75
O       7.30       6.22      11.38
O       7.21       7.50       7.97
O       6.25      -5.31       9.48
O       7.87      15.40       7.12
O       7.30      -4.16       8.11
O       7.21      14.27       8.71
