11

N       0.16       4.04       6.63
N       0.09       4.16       7.96
C      -0.30       5.29       4.58
C      -0.36       5.16       6.07
C      -0.79       5.98       7.13
N      -0.48       5.34       8.28
C      -1.54       7.26       7.28
O       0.38       4.39       3.99
O      -0.87       6.27       4.01
O      -1.85       7.96       6.27
O      -1.85       7.59       8.49
