14

O       5.95       8.03      12.52
O       7.48       8.28      10.86
N       4.51      11.57      14.37
N       6.24      10.73      13.26
H       6.86      10.76      11.25
C       7.03      10.18      12.17
H       8.10      10.31      12.42
C       6.78       8.72      11.85
C       6.68      10.98      14.54
C       4.92      11.09      13.19
H       7.71      10.81      14.85
C       5.61      11.51      15.22
H       4.30      10.99      12.31
H       5.56      11.86      16.24
