11

N       4.09       5.85       2.96
N       4.08       5.73       1.61
N       3.46       4.57       1.28
O       4.17       5.55       5.61
O       2.94       3.66       5.54
O       1.91       1.97       3.18
O       2.42       2.28       1.01
C       3.52       4.65       4.99
C       3.49       4.77       3.50
C       3.07       3.95       2.45
C       2.42       2.67       2.26
