53

C       6.44      16.56       5.11
C       5.56      16.12       4.39
H       7.81      18.90      11.38
H      10.39      17.08       8.46
H       6.16      17.45       7.70
H       6.32      20.56      10.73
H       4.13      21.47      11.44
H       2.21      17.82      10.25
H       4.40      16.93       9.43
H       9.49      18.32      12.75
H      11.32      19.53      13.94
H      13.44      20.00      10.25
H      11.61      18.84       9.03
H      10.10      15.29       7.03
H      10.71      14.87       4.65
H       7.99      17.94       3.37
H       7.38      18.30       5.78
N       4.65      15.64       3.57
O       1.64      21.49      11.61
O       0.84      19.37      11.75
O      13.64      20.56      14.14
O      14.35      21.27      12.11
O       9.41      17.04       1.56
O      10.70      15.30       2.23
O       3.88      15.68       1.30
C       6.84      18.17       9.61
C       7.95      18.38      10.44
C       9.25      18.01      10.03
C       9.40      17.35       8.80
C       8.29      17.14       7.94
C       7.02      17.56       8.37
C       5.52      18.67      10.04
C       5.43      19.95      10.62
C       4.20      20.47      11.03
C       3.04      19.70      10.90
C       3.12      18.42      10.33
C       4.34      17.92       9.88
C      10.41      18.50      10.80
C      10.35      18.69      12.20
C      11.38      19.35      12.87
C      12.49      19.84      12.17
C      12.58      19.61      10.79
C      11.56      18.95      10.11
C       8.52      16.67       6.59
C       9.56      15.81       6.23
C       9.95      15.60       4.91
C       9.40      16.42       3.87
C       8.40      17.31       4.15
C       7.68      17.28       5.48
C       1.73      20.20      11.44
C      13.56      20.61      12.88
C       9.87      16.27       2.45
C       4.29      15.71       2.42
