53

C       4.91       3.98       7.18
C       3.79       3.76       6.35
C       2.50       4.13       6.76
C       2.35       4.79       7.99
C       3.45       5.01       8.85
C       4.73       4.58       8.42
C       6.23       3.47       6.74
C       6.32       2.19       6.16
C       7.54       1.67       5.76
C       8.70       2.45       5.88
C       8.62       3.73       6.45
C       7.40       4.22       6.90
C       1.33       3.64       5.99
C       1.39       3.46       4.59
C       0.36       2.79       3.92
C      -0.75       2.30       4.62
C      -0.84       2.53       6.00
C       0.19       3.19       6.68
C       3.22       5.48      10.20
C       2.18       6.34      10.55
C       1.79       6.54      11.88
C       2.34       5.73      12.92
C       3.34       4.84      12.64
C       4.06       4.87      11.31
C      10.00       1.95       5.33
C      -1.82       1.53       3.91
C       1.88       5.88      14.34
H       3.93       3.25       5.41
C       7.46       6.45      14.37
C       5.31       5.58      11.67
C       6.18       6.02      12.40
H       1.35       5.06       8.33
N       7.10       6.50      13.22
H       5.58       4.70       9.09
H       5.42       1.59       6.06
H       7.35       5.21       7.35
H       7.61       0.67       5.34
H       9.54       4.32       6.53
H       1.64       6.85       9.76
H       2.25       3.83       4.04
H       3.76       4.21      13.42
H       4.36       3.85      11.00
H       0.13       3.31       7.76
H       0.42       2.62       2.85
H      -1.70       2.15       6.54
H       1.04       7.27      12.14
O      10.09       0.66       5.16
O      10.90       2.77       5.03
O      -1.90       1.58       2.65
O      -2.61       0.86       4.68
O       2.34       5.10      15.23
O       1.05       6.84      14.56
O       7.88       6.50      15.49
