26

H       9.40      14.47       0.38
O       9.95      16.33      -4.04
O      10.32      14.52      -5.32
C      10.26      12.38       1.87
O      10.33       9.91       5.33
C       9.68      10.43       0.57
C      10.13       9.37       4.19
H       9.41       9.96      -0.37
C       9.73       9.65       1.73
H      10.54      12.04       4.00
C      10.10      15.06      -4.19
H      10.51      13.44       1.93
C       9.96      11.81       0.62
C      10.29      11.60       3.03
H      10.50      10.99      -1.93
C      10.03      14.21      -2.96
C      10.28      12.83      -3.03
C       9.71      14.78      -1.72
C       9.67      14.00      -0.57
C      10.25      12.05      -1.87
H       9.50      15.85      -1.69
C       9.96      12.62      -0.61
C      10.04      10.22       2.97
H       9.53       8.58       1.69
H      10.52      12.39      -3.99
O       9.99       8.10       4.04
