24

H       0.64      11.17       6.30
H      -5.80      13.38       9.47
C      -6.33      12.78       8.74
C      -4.19      11.92       7.69
H       1.08      13.84       9.43
C      -6.42      11.23       6.90
H      -1.40      14.04       9.72
H      -5.92      10.61       6.15
H      -1.85      11.22       6.46
H      -3.64      13.48       9.02
C      -1.25      11.82       7.15
C      -0.99      13.38       8.96
C      -7.80      11.30       6.96
H      -3.84      11.17       6.98
C      -3.30      12.71       8.32
C      -1.85      12.63       8.14
H      -8.43      10.73       6.28
C       0.13      11.78       7.05
C       0.38      13.28       8.80
N      -8.45      12.05       7.87
C      -5.64      11.99       7.80
N       0.95      12.49       7.86
H      -8.29      13.37       9.46
C      -7.72      12.78       8.75
