240

Mn       2.62       0.07       7.14
Mn       5.32       2.13       6.10
Mn       0.03      -1.98       6.13
Mn       8.24       0.07       4.85
Mn       1.34      10.16      13.81
Mn      -1.35       8.10      14.85
Mn       3.93      12.21      14.81
Mn      -4.28      10.16      16.10
H       6.94       2.79      10.04
H       7.09       3.30      12.51
H       3.80       0.62      13.24
H       3.70       0.08      10.78
H       5.66       5.18      13.61
H       4.04       7.09      13.39
H       1.06       4.79      15.46
H       2.67       2.88      15.68
H       2.86      -1.05       4.06
H      -0.36      17.18       2.73
H       3.62      15.61       3.22
H       4.21      17.59       4.64
H      -0.62      16.67       0.44
H      -4.92       7.84      19.19
H      -1.25       5.72      18.39
H      -1.37       4.65      20.64
H      -0.18      14.91       5.53
H       1.45      13.01       5.28
H       4.44      15.34       7.32
H       5.43      -3.01       7.56
H       2.57      10.75       7.62
H       2.42      10.20      10.07
H       5.68      12.87      10.89
H       5.86      13.39       8.43
H      -1.41       2.77       4.60
H      -0.81       4.68       3.13
H       3.19       3.10       2.74
H       2.56       1.15       4.11
H      -4.67      -4.50      20.47
H       6.39      -5.64      18.25
H      -1.03      -7.68      19.28
H       3.56       3.56       0.49
H      -2.98       7.44      10.91
H      -3.12       6.93       8.44
H       0.16       9.61       7.71
H       0.26      10.15      10.17
H      -1.70       5.05       7.34
H      -0.08       3.14       7.56
H       2.90       5.44       5.49
H       1.29       7.35       5.27
H       1.10      11.29      16.89
H       4.32      -6.95      18.22
H       0.34      -5.38      17.73
H      -0.25      -7.35      16.31
H       4.58      -6.44      20.51
H       8.88       2.40       1.76
H       5.21       4.51       2.56
H       5.33       5.58       0.31
H       4.14      -4.67      15.42
H       2.51      -2.77      15.66
H      -0.48      -5.10      13.63
H      -1.47      13.24      13.39
H       1.39      -0.52      13.33
H       1.54       0.03      10.87
H      -1.72      -2.64      10.06
H      -1.90      -3.16      12.52
H       5.37       7.46      16.35
H       4.77       5.55      17.82
H       0.77       7.13      18.21
H       1.40       9.08      16.83
H       8.63      14.73       0.48
H      -2.43      15.87       2.70
H       4.99      17.91       1.67
H       0.40       6.67      20.46
C       5.11       1.24       8.80
C       5.29       1.44      10.27
C       6.26       2.32      10.75
C       6.33       2.62      12.11
C       5.41       2.02      12.99
C       4.47       1.09      12.53
C       4.42       0.79      11.17
C       4.23       3.92      14.61
C       4.64       5.10      13.98
C       3.75       6.16      13.86
C       2.44       6.03      14.37
C       2.06       4.85      15.04
C       2.95       3.79      15.16
C       1.47       7.15      14.25
C       5.23      -0.51       5.20
C       4.89      -1.71       4.40
C       3.60      -1.82       3.86
C       0.65      17.30       3.11
C       1.62      16.31       2.86
C       2.90      16.40       3.40
C       3.22      17.51       4.19
C       1.26      15.63       0.20
C      -4.26       6.50      20.75
C      -4.15       7.14      19.52
C      -3.06       6.88      18.67
C      -2.07       5.96      19.06
C      -2.15       5.34      20.32
C      -2.97       7.61      17.38
C       2.86      -2.95       6.70
C       1.21      16.16       6.59
C       0.82      14.98       5.94
C       1.72      13.93       5.80
C       3.01      14.07       6.32
C       3.43      15.25       6.95
C       2.52      16.30       7.08
C       4.18      12.15       7.91
C       3.23      11.22       8.34
C       3.15      10.91       9.70
C       4.00      11.55      10.62
C       5.00      12.42      10.16
C       5.10      12.72       8.81
C       3.77      11.35      12.08
C       0.19       0.62       5.22
C       0.52       1.79       4.41
C      -0.42       2.81       4.15
C      -0.09       3.89       3.34
C       1.21       3.98       2.81
C       2.17       3.00       3.11
C       1.82       1.91       3.88
C       1.67       4.57       0.14
C      -3.88      -5.19      20.20
C      -3.89      -5.84      18.97
C      -2.88      -6.77      18.65
C      -1.82      -6.98      19.55
C      -1.78      -6.30      20.76
C      -2.94      -7.56      17.40
C      -1.15       8.99      12.15
C      -1.33       8.79      10.68
C      -2.30       7.91      10.20
C      -2.37       7.62       8.84
C      -1.45       8.21       7.96
C      -0.51       9.14       8.42
C      -0.46       9.44       9.78
C      -0.27       6.31       6.33
C      -0.68       5.13       6.96
C       0.21       4.07       7.08
C       1.52       4.20       6.58
C       1.90       5.38       5.91
C       1.01       6.44       5.79
C       2.49       3.08       6.69
C      -1.27      10.74      15.75
C      -0.93      11.94      16.55
C       0.36      12.05      17.09
C       3.31      -7.07      17.84
C       2.34      -6.08      18.09
C       1.06      -6.17      17.55
C       0.74      -7.28      16.76
C       2.70      -5.40      20.75
C       8.22       3.73       0.20
C       8.11       3.09       1.43
C       7.02       3.35       2.28
C       6.04       4.27       1.89
C       6.11       4.89       0.63
C       6.93       2.62       3.57
C       1.11      13.18      14.25
C       2.75      -5.93      14.36
C       3.14      -4.75      15.01
C       2.24      -3.69      15.15
C       0.95      -3.83      14.63
C       0.54      -5.02      14.00
C       1.44      -6.07      13.86
C      -0.22      -1.92      13.04
C       0.73      -0.99      12.61
C       0.81      -0.68      11.25
C      -0.04      -1.32      10.33
C      -1.04      -2.19      10.78
C      -1.14      -2.49      12.14
C       0.19      -1.12       8.87
C       3.77       9.61      15.73
C       3.45       8.44      16.54
C       4.38       7.42      16.80
C       4.05       6.34      17.61
C       2.75       6.25      18.14
C       1.79       7.23      17.84
C       2.14       8.32      17.07
C       2.29       5.66      20.80
C       7.84      15.42       0.75
C       7.85      16.08       1.98
C       6.85      17.00       2.30
C       5.78      17.21       1.40
C       5.74      16.53       0.19
C       6.90      17.79       3.55
S       5.37       2.55      14.70
S       1.16      14.92       1.84
S       4.15      12.69       6.21
S       1.67       5.34       1.76
S      -1.41       7.69       6.25
S       2.80      -4.68      19.11
S      -0.19      -2.46      14.74
S       2.30       4.89      19.19
O       4.17       0.48       8.42
O       2.79      10.60      12.42
O       3.32      -1.80       7.03
O       1.94       8.28      13.87
O       1.12      -0.26       5.51
O       4.31       0.38       5.41
O       5.91       1.88       8.01
O       0.25       6.91      14.54
O      -2.06       7.27      16.54
O       6.42      -0.32       5.64
O       4.54      11.98      12.90
O      -0.98      17.04       6.44
O       7.29      -7.23      16.49
O      -1.01       0.38       5.63
O      -3.81       8.55      17.18
O      -4.74      11.69      17.30
O      -4.38       3.09      15.01
O       4.75       1.48      15.48
O       2.19      13.89       1.96
O      -0.25      14.64       2.13
O       5.47      13.24       5.88
O       3.52      11.65       5.41
O       3.06       5.66       2.07
O       0.61       6.34       1.80
O      -0.20       9.75      12.53
O       1.17      -0.37       8.53
O       0.64      12.03      13.92
O       2.02       1.95       7.08
O       2.84      10.49      15.44
O      -0.35       9.85      15.54
O      -1.94       8.35      12.93
O       3.71       3.32       6.40
O       6.02       2.96       4.41
O      -2.46      10.55      15.30
O      -0.58      -1.74       8.05
O       4.94      -6.81      14.51
O      -3.33      17.46       4.46
O       4.97       9.85      15.32
O       7.78       1.69       3.77
O       8.70      -1.46       3.65
O       8.34       7.14       5.94
O      -0.79       8.75       5.47
O       1.77      -3.66      18.99
O       4.21      -4.41      18.82
O      -1.50      -3.01      15.06
O       0.44      -1.42      15.54
O       0.90       4.57      18.88
O       3.35       3.89      19.15
