92

V       6.64       9.11       9.94
V       3.17       8.81      10.03
V       2.60      13.48       0.04
V       6.05       4.45      19.93
H       1.33       4.26       9.58
H       1.41      14.75       6.07
H       1.33       2.22       8.23
H       1.01       6.67       6.08
H       0.84       4.64       0.35
H       0.96       6.75       4.01
H       0.85       6.74       1.61
H       1.13       1.18       3.67
H       6.10       7.30      13.85
H       2.20       6.93      13.98
H       6.00       6.20      16.04
H       2.13       6.18      15.99
H       6.64      11.83       3.81
H       3.59      11.56       3.96
H       3.68      11.10       6.08
H       4.28      13.64      10.40
H       3.94       3.14      13.91
H       4.09      15.67      11.75
H       4.95      11.27      13.88
H       5.07      13.31      19.61
H       5.08      11.20      15.95
H       5.26      11.22      18.34
H       4.29      16.72      16.31
C       4.68      10.03       7.70
C       4.71      11.12      11.28
C       1.25       7.87      12.25
C       1.21       6.81       8.69
C       1.26       3.18       7.73
C       1.16       5.58       7.89
C       0.90       4.61       1.43
C       0.90       5.80       2.14
C       0.97       5.79       3.53
C       1.04       4.57       4.25
C       1.05       3.35       3.51
C       1.09       4.52       5.68
C       1.18       3.26       6.33
C       1.19       2.08       5.58
C       1.12       2.12       4.20
C       1.08       5.68       6.49
C       1.26       4.34       8.50
C       0.98       3.38       2.10
C       7.05       7.01      14.28
C       1.23       7.22      13.58
C       6.99       6.37      15.64
C       1.13       6.02      16.37
C       5.68      11.57       4.25
C       4.56      11.86       3.57
C       5.72      10.83       5.54
C       4.64      10.69       6.37
C       4.28      14.72      12.25
C       4.64      12.34      12.08
C       4.97      13.34      18.53
C       5.09      12.15      17.82
C       4.98      12.16      16.43
C       4.75      13.36      15.71
C       4.62      14.57      16.46
C       4.65      13.40      14.29
C       4.41      14.65      13.64
C       4.28      15.82      14.40
C       4.39      15.78      15.78
C       4.77      12.25      13.47
C       4.39      13.57      11.47
C       4.74      14.54      17.87
C       4.67      15.77      18.67
C       4.56      12.53       2.26
C       0.93       2.16       1.30
C       1.03       5.38      17.70
Cl       0.36      10.13       5.92
O       3.59      10.53      11.00
O       5.84       9.88       8.25
O       7.04       7.39       8.97
O       5.88      10.69      10.94
O       7.08       8.20      11.68
O       3.55       9.72       8.29
O       4.74       8.15      10.22
O       2.42       8.04      11.72
O       2.38       7.24       9.03
O       1.26       9.78       9.75
O       5.69      12.87       1.70
O       3.50      16.20      19.01
O       2.14       5.05      18.27
O       3.40      12.71       1.73
O       2.05       1.57       1.01
O       5.78      16.35      18.95
O       4.48       5.11      19.73
O       6.70       1.72       0.96
O       6.80       5.21      18.24
O       1.04      12.82       0.24
