24

C       3.99       4.39      22.24
C       3.85       5.01      23.63
C       4.25       7.22      26.24
C       5.11       7.39      27.32
H       5.86       5.26      24.28
H       3.62       4.21      24.35
H       2.97       5.67      23.61
H       6.16       7.61      27.14
H       5.26       7.44      29.47
C       4.60       7.29      28.62
H       2.22       6.81      25.59
C       3.24       7.03      28.84
S       4.90       7.32      24.58
C       2.39       6.86      27.74
C       2.88       6.95      26.44
C       2.67       6.95      30.23
N       5.02       5.79      24.01
H       1.33       6.67      27.92
O       5.13       4.12      21.77
O       2.91       4.19      21.61
O       6.25       7.84      24.67
O       3.88       7.99      23.77
O       3.56       6.85      31.18
O       1.43       6.98      30.40
