28

Zn       3.84      10.63       6.64
P       1.94       8.31       7.29
N       3.35      10.48      -2.40
P       6.84      10.51       5.69
P       1.79      12.81       7.19
N       3.45      10.49       4.66
H       3.41      12.57       4.55
H       3.54       8.41       4.56
O       5.77      10.55       6.80
O       2.86       9.41       7.86
H       3.31      12.67       2.12
H       3.41      12.54      -2.36
O       3.27      12.40       7.27
H       3.39      12.67       0.13
H       3.34       8.32       0.15
H       3.45       8.32       2.12
H       3.29      10.50      -3.47
H       3.35       8.42      -2.36
C       3.39      11.65       3.97
C       3.46       9.33       3.97
C       3.35      10.49       1.85
C       3.34      10.49       0.39
C       3.34      11.69       2.59
C       3.37      11.66      -1.74
C       3.36      11.70      -0.36
C       3.35       9.30      -1.73
C       3.34       9.29      -0.35
C       3.40       9.29       2.59
