10

O       8.20      10.78       6.41
Zn       9.98      10.49       5.61
O      10.50       8.89       6.61
O      10.87      12.19       5.99
P      11.75       8.31       7.29
P      11.60      12.81       7.19
N       9.92      10.26       3.57
P       6.84      10.51       5.69
C       9.96       9.04       2.99
C       9.84      11.34       2.75
