10

Zn       7.41       7.32      16.97
C       6.19       7.51      14.32
O       5.73       8.19      17.51
P       5.04       9.10      18.54
O       8.92       7.85      18.11
C       8.46       7.06      14.14
P       9.51       9.12      18.74
N       7.38       7.29      14.93
O       7.33       5.49      17.72
P       7.37       4.10      17.02
