28

Zn       6.90       3.55       4.72
P       9.16       5.51       4.17
P       6.79       0.63       5.69
P       4.69       5.49       3.97
N       6.78       4.01       6.68
N       6.32       4.12      13.70
H       4.72       4.25       6.66
H       4.48       4.33       9.09
O       8.76       4.03       4.28
O       5.78       4.54       3.42
H       8.58       3.50      11.33
H       4.46       4.85      11.02
O       6.56       1.65       4.54
H       8.83       3.73       6.89
H       8.80       3.81       9.34
H       8.28       3.51      13.82
H       4.38       4.84      13.52
H       6.21       4.04      14.76
C       5.59       4.18       7.30
C       5.48       4.23       8.67
C       6.62       4.10       9.48
C       6.53       4.14      10.93
C       7.63       3.80      11.76
C       5.33       4.52      11.59
C       7.86       3.93       8.81
C       7.90       3.88       7.43
C       7.49       3.78      13.12
C       5.25       4.52      12.96
