14

C      18.91      17.74       8.03
O      20.00      17.74       4.81
Cu      20.39      15.58       6.98
Cu      18.54      16.64       5.47
O      17.37      15.38       6.36
C      17.78      14.52       7.14
O      19.05      15.25       4.21
C      21.13      17.72       5.29
O      20.80      14.50       5.40
C      20.00      14.49       4.40
O      19.00      14.29       7.47
O      21.53      17.01       6.28
O      19.72      16.80       8.35
O      18.32      17.87       6.96
