14

C      26.24      16.45       4.40
C      27.37      18.37       7.14
O      28.37      15.55       8.35
Cu      26.98      15.58       6.98
Cu      28.83      16.64       5.47
O      26.56      17.43       7.47
O      25.84      15.76       5.40
C      29.59      15.78       8.03
O      29.05      14.83       4.81
O      27.65      13.87       6.28
O      28.32      18.29       6.36
C      28.46      13.86       5.29
O      27.37      16.90       4.21
O      30.00      16.22       6.96
