118

Gd       6.08       1.55      15.86
Gd       3.59       4.93       4.21
Gd       3.74       7.97      18.97
Gd       1.25      11.34       7.32
Cu       1.37      12.89      23.18
Cu       3.66       6.45      11.59
H       4.62       4.50       9.20
H       3.99      11.26       4.12
H       6.40       4.87       7.46
H       3.34       1.64      19.06
H       5.12       2.00      20.80
H       0.93       8.03      15.73
H       4.16       9.45       7.92
H       2.71       8.40      13.98
H       1.95      11.96      18.61
H       2.20      10.90       2.38
H       3.17       3.44      15.26
H       6.79       9.87      19.53
H       3.03       7.36       7.03
H       4.30       5.54      16.16
H       5.38       0.93       4.57
H       0.53       3.02       3.65
C       3.10      10.66      20.98
C       3.46       0.92      19.87
C       3.87      11.97       3.31
C       2.28       0.87       1.28
C       4.46       1.14      20.82
C       0.96       7.51       9.32
C       0.83       6.59      18.72
C       1.91       8.69       9.38
C       2.68       2.25       6.03
C       3.26       1.06       2.26
C       4.23       2.23       2.20
C       2.05       7.53      13.96
C       0.96       2.48       4.50
C       2.87      11.76       2.36
C       5.79       3.61      18.32
C       2.16       1.00       6.39
C       1.54       9.28       4.86
C       5.93       7.32      10.29
C       3.35       5.17      16.56
C       5.74       8.25      11.46
C       5.77       7.40       5.20
C       3.97       7.72       6.62
C       3.46       9.97      16.46
C       6.37       5.38      13.87
C       6.49       6.30       4.46
C       4.58       8.90       7.09
C       2.09       1.79       0.10
C       4.16      12.75       7.13
C       5.16      11.89      16.80
C       5.42       4.21      13.81
C       2.75       4.00      16.10
C       5.24      11.10      23.08
C       6.27       5.58       8.27
C       6.97      11.59      18.21
C       0.36       1.31       4.97
C       5.05      12.02      21.89
C       5.27       5.37       9.22
C       6.30       8.64       5.55
C       6.37      10.41      18.69
C       1.02       4.25      17.63
C       1.40       5.57      12.90
C       1.06       7.31      14.91
C       1.59       4.65      11.72
C       4.06      11.83      20.92
C       3.17       0.15      16.05
C       3.87       2.93       6.72
C       4.64      10.64      17.15
C       1.56       5.50      17.98
N       5.69       9.38       6.51
N       0.96       0.59       5.93
N       2.76       5.90      17.53
N       2.70      12.65       1.37
N       3.91      12.68      19.89
N       5.26       9.92      18.11
N       2.07       2.97       5.07
N       1.11       6.66       8.28
N       2.22       6.63      12.98
N       6.22       6.24      14.90
N       4.56       7.00       5.66
N       3.42       0.21       3.29
N       4.63       0.24      21.81
N       1.63       3.51      16.68
N       6.37      12.31      17.25
N       5.10       6.27      10.20
O       3.45      11.90       7.74
O       4.38      10.07       0.01
O       1.47       9.78       8.81
O       3.06      10.36      15.37
O       1.96       8.84       3.80
O       2.56       4.99      10.92
O       1.55       7.39      19.40
O       1.99      10.34       5.49
O       3.06       8.52       9.80
O       0.81       3.69      11.59
O       1.92       0.25      16.23
O       4.27       2.53       7.81
O       3.88       1.00      15.44
O       1.95      10.84      21.40
O       5.37       2.06       1.78
O       3.54       9.57      20.42
O       5.41      12.65       6.96
O       4.27       4.38      13.38
O       5.34       2.55      17.69
O       4.77       7.91      12.27
O       3.79       3.33       2.76
O       5.78       5.51       3.78
O       2.98       8.95      17.14
O       2.95       2.83      23.17
O       5.37       4.06      19.38
O       1.76       6.13       4.70
O       5.86       3.11      14.37
O       6.07      11.41       0.72
O       1.25       1.49      22.46
O       6.51       9.20      11.60
O       4.34       3.95       6.04
O       5.57       6.76      18.48
