21

Co       6.05       7.72       9.16
Co       9.43       2.46       9.17
Co       7.74       5.10       8.92
C       4.65       5.93       8.33
O       5.68       5.70       9.10
O       4.34       7.15       8.13
O       9.78       4.49       9.14
O      11.13       3.05       8.17
O       8.17       6.41       7.40
O       8.36       6.44      10.37
O       7.13       8.40       7.72
O       7.01       8.23      10.75
C      10.82       4.27       8.37
O       7.26       3.78       7.39
C       7.89       7.60       7.05
O       7.17       3.72      10.35
O       8.35       1.80       7.72
O       8.49       1.92      10.76
C       8.09       7.54      10.94
C       7.57       2.60       7.05
C       7.42       2.63      10.95
