82

H       5.85       5.26      16.88
H       3.03       8.08      18.48
H       7.86       9.89       7.69
H       2.20      14.18      13.80
H       0.16      11.85       5.25
H       4.97       8.49      10.79
H       5.80      12.29      15.24
H       4.04       9.86       4.81
H       0.67      10.63       7.37
H       8.55       7.96       3.46
H       6.51      11.56       2.31
H       5.57      11.77       4.60
H       2.18      10.73       9.31
H       5.94       6.55      14.75
H       5.48      13.37      17.45
H       2.42       8.41       4.00
H       4.13      10.68      15.15
H       0.95       8.17       2.00
H      -1.27      11.65       3.24
H       3.03       9.32      16.34
H       4.99       7.14      12.85
H       3.56      14.14      11.91
H       1.91      15.29      16.02
H       7.62       8.16       5.76
C       3.64       7.74      17.65
C       4.94      12.94      15.41
C       1.39      10.15       4.76
C       4.53      10.29       6.86
C       3.65      10.12       5.79
C       4.86       8.22      12.91
C       1.75      10.56       7.22
C      -0.46      10.93       3.41
C       7.59       9.75       2.75
C       0.33      11.05       4.54
C       4.86      10.56       9.32
C       4.40      11.07      10.55
C       6.75      10.82       3.07
C       6.22      10.93       4.35
C       2.26      10.29       5.94
C       5.24       6.15      16.74
C       2.76      14.64      15.83
C       2.60      10.65       8.31
C       7.90       8.79       3.72
C      -1.13       9.70       1.31
C       1.62       9.12       3.83
C       3.67      14.38      16.87
C       8.20       9.66       1.39
C       6.78      10.04       7.79
C       4.01      10.57       8.16
C       3.42      14.99      18.19
C       3.67       8.44      16.45
C       5.28       6.87      15.55
C       6.53       9.98       5.34
C       4.58       8.82      14.16
C       4.43       6.60      17.80
C       0.80       8.98       2.71
C       7.38       8.91       5.01
C       4.86       8.98      11.76
C       4.41      11.00      13.04
C       5.97      10.11       6.70
C       4.11      12.43      13.08
C       3.76      12.43      10.61
C       4.77      13.55      16.65
C       3.82      13.08      11.91
C      -0.25       9.89       2.49
C       4.50       8.03      15.39
C       4.01      13.14      14.37
C       4.64      10.38      11.78
C       6.29      10.14       9.17
C       2.93      14.02      14.59
C       4.36      10.21      14.19
C       4.41       5.84      19.08
O       4.28      14.79      19.15
O       8.20      10.75       0.66
O      -1.12       8.58       0.72
O       7.09       9.97      10.12
O       3.28      13.04       9.64
O      -1.86      10.69       0.90
O       3.80       6.39      20.06
O       2.42      15.76      18.36
O       8.70       8.59       0.97
O       5.00       4.71      19.10
