52

C       0.95       4.01       8.02
Zn       6.09       1.78       6.33
Zn       6.15       1.81       3.08
O       5.49       0.98       1.42
O       3.52       1.17       2.44
Zn       2.04       6.38       3.08
Zn       6.40       6.09       6.33
Zn       1.78       2.10       6.33
Zn       1.81       2.04       3.08
Zn       2.10       6.40       6.33
O       2.69       7.20       1.42
O       4.66       7.02       2.44
Zn       6.38       6.15       3.08
O       7.20       5.49       1.42
O       7.02       3.52       2.44
C       8.31       0.60       4.71
O       0.98       2.69       1.42
O       1.17       4.66       2.44
C       4.21       0.91       1.40
C      -0.12       7.59       4.71
C       3.98       7.28       1.40
C       7.59       8.31       4.71
C       7.28       4.21       1.40
O       5.33       2.53       4.68
O       7.73       0.78       5.83
O       7.79       0.78       3.55
C       0.60      -0.12       4.71
O       2.86       5.65       4.68
O       0.40       7.40       3.55
O       0.45       7.41       5.83
C       0.91       3.98       1.40
C       4.01       7.23       8.02
O       5.65       5.33       4.68
O       7.41       7.73       5.83
O       7.40       7.79       3.55
O       2.53       2.86       4.68
O       0.78       0.45       5.83
O       0.78       0.40       3.55
O       4.67       6.89       6.98
O       2.73       7.26       7.99
H       4.33       2.52       4.67
C       4.17       0.95       8.02
O       3.52       1.30       6.98
O       5.45       0.92       7.99
H       3.85       5.67       4.67
O       6.89       3.52       6.98
O       7.26       5.45       7.99
H       5.67       4.33       4.67
C       7.23       4.17       8.02
O       1.30       4.67       6.98
O       0.92       2.73       7.99
H       2.52       3.85       4.67
