52

Zn      10.28      14.59      24.18
Zn      10.22      14.56      27.43
Zn      14.27       9.97      24.18
C       9.14      12.20      22.49
Zn       9.97      10.28      24.18
Zn       9.99      10.22      27.43
Zn      14.33       9.99      27.43
Zn      14.59      14.27      24.18
Zn      14.56      14.33      27.43
C      15.42      12.36      22.49
O      11.04      13.84      25.82
O       8.64      15.59      24.68
O       8.58      15.59      26.96
O      13.51      10.72      25.82
O      15.92       8.96      24.68
O      15.97       8.97      26.96
O      10.72      11.04      25.82
O       8.96       8.64      24.68
O       8.97       8.58      26.96
C      12.16      15.46      29.11
H      12.04      13.85      25.83
O      13.84      13.51      25.82
O      15.59      15.92      24.68
O      15.59      15.97      26.96
O      11.70       9.48      23.53
O      13.64       9.11      22.51
C       8.06      15.77      25.80
H      12.52      10.70      25.83
O      12.85      15.07      23.53
O      10.92      15.45      22.51
C      12.39       9.09      29.11
H      10.70      12.04      25.83
O       9.48      12.85      23.53
O       9.11      10.92      22.51
C      16.49       8.78      25.80
H      13.85      12.52      25.83
O      15.07      11.70      23.53
O      15.45      13.64      22.51
C       9.09      12.16      29.11
O      10.88      15.39      29.09
O      12.85      15.20      28.07
C       8.78       8.06      25.80
O      13.68       9.17      29.09
O      11.71       9.35      28.07
C      15.46      12.39      29.11
O       9.17      10.88      29.09
O       9.35      12.85      28.07
C      15.77      16.49      25.80
O      15.39      13.68      29.09
O      15.20      11.71      28.07
C      12.36       9.14      22.49
C      12.20      15.42      22.49
