70

Cu       9.90       4.88       5.45
Cu       9.53       2.96       2.55
Cu       5.54       6.16       5.45
Cu       7.38       6.77       2.55
Cu       6.62       1.74       5.45
Cu       5.16       3.02       2.56
Cu       6.62      -1.73       5.38
Cu      12.52       9.76       8.27
Cu       2.55       7.90       5.38
Cu       2.18       9.82       8.28
Cu      12.90       6.62       5.38
Cu      14.74       6.00       8.28
C       2.29      12.76       8.48
C      16.56       5.43      10.46
C      11.12       8.45      10.46
C       1.75      11.69      10.46
C      17.21       4.42       8.48
C       9.92       8.39       8.48
I       9.16       2.34       5.26
I       8.11       6.76       5.26
I       4.80       3.65       5.27
I      12.15       9.13       5.56
Cu       7.33       4.24       4.30
I      15.46       6.01       5.57
I       9.16      -2.33       5.56
Cu      14.68       8.53       6.53
I       7.37       4.25       1.56
I      14.72       8.53       9.27
N      11.10       4.98       3.84
N      12.11       5.85       3.72
N      12.52       5.90       2.45
N      10.85       4.44       2.63
N       4.85       7.13       3.83
N       3.60       7.60       3.72
N       3.35       7.93       2.45
N       5.44       7.17       2.63
N       6.12       0.65       3.84
N       6.35      -0.66       3.72
N       6.18      -1.05       2.45
N       5.78       1.14       2.63
N       6.12      -0.64       6.99
N       6.35       0.67       7.11
N       6.18       1.05       8.38
N       5.78      -1.13       8.20
N       3.74       7.79       6.99
N       4.76       6.93       7.11
N       5.17       6.88       8.38
N       3.49       8.34       8.20
N      12.20       5.65       7.00
N      10.96       5.18       7.11
N      10.71       4.84       8.38
N      12.80       5.60       8.20
N       8.99       7.55       1.68
N       3.69       4.03       1.68
C      11.72       5.03       1.79
N       9.39       1.17       1.69
C       4.49       7.65       1.78
N       2.04      11.61       9.14
C       5.84       0.08       1.78
N      16.35       5.23       9.15
N      11.05       8.74       9.15
C       5.84      -0.07       9.05
C       4.37       7.74       9.04
C      11.85       5.12       9.05
C       9.21       7.34       0.37
C       9.86       8.35       2.35
C       3.76       4.32       0.37
C       2.56       4.38       2.35
C       9.11       1.09       0.37
C       9.65       0.01       2.35
