76

Co       8.50       1.85       2.46
Co       7.21       6.36      12.43
Co       8.93       4.24      14.91
Co       9.08       7.91       0.04
H      12.03       5.66       3.36
H       5.09       5.39       4.50
H       5.97       5.61       2.98
H       4.45       3.17       3.96
H       2.92       3.26       2.34
H      11.66       5.17       1.10
H       8.88       5.11       2.66
H      10.37       6.19       4.77
H      10.47       1.93       4.91
H       3.27       2.12       5.97
H      10.99       6.11       6.94
H       3.68       2.55      11.54
H      10.60       2.84      10.40
H       9.73       2.62      11.93
H      11.27       5.04      10.97
H      12.78       4.96      12.60
H       4.06       3.02      13.80
H       6.83       3.10      12.25
H       5.34       2.03      10.14
H       5.24       6.29      10.00
H      12.44       6.10       8.94
H       4.72       2.11       7.97
C       6.24       3.01       2.86
C       4.27       2.57       0.86
C       4.51       5.52       0.30
C      12.94       7.34       2.57
C       3.84       5.85       2.74
C       5.06       5.20       3.42
C       4.91       3.69       3.11
C       3.87       3.60       1.91
C       3.61       5.06       1.43
C       9.42       4.63       3.47
C      10.16       5.16       4.49
C      10.25       2.94       4.58
C      11.56       4.11       6.33
C       3.27       2.99       6.63
C      11.61       5.24       7.16
C       9.47       5.20      12.04
C      11.45       5.62      14.08
C      11.21       2.67      14.60
C       2.75       0.87      12.32
C      11.86       2.36      12.15
C      10.65       3.02      11.49
C      10.80       4.53      11.81
C      11.83       4.60      13.02
C      12.11       3.14      13.47
C       6.28       3.59      11.44
C       5.55       3.06      10.42
C       5.45       5.28      10.34
C       4.15       4.11       8.59
C      12.43       5.23       8.28
C       4.10       2.98       7.76
N       9.48       3.24       3.54
N      10.70       4.08       5.20
N       6.23       4.97      11.36
N       5.01       4.14       9.71
O       7.04       3.45       1.94
O       6.61       2.03       3.56
O       3.87       1.35       1.09
O       7.12       3.12      14.76
O       6.13       6.07      14.10
O       5.77       5.57       0.54
O      12.18       7.89       1.72
O       9.19       0.13       3.36
O       8.66       4.76      12.95
O       9.10       6.19      11.34
O      11.90       6.81      13.89
O       8.58       5.05       0.17
O       9.59       2.12       0.81
O       9.94       2.63      14.37
O       3.51       0.31      13.16
O       6.48       8.09      11.54
