16

O      11.64      11.03      12.01
O      10.03      12.42      11.22
H      11.29       8.74      10.79
H       9.85      12.24       8.73
H      11.06       7.43       8.68
H       9.67      10.91       6.61
O      10.01       8.91       5.18
O      10.67       7.06       6.31
C      10.62      10.59       9.88
C      10.96       9.23       9.87
C      10.83       8.49       8.70
C      10.40       9.10       7.51
C      10.03      10.45       7.53
C      10.13      11.19       8.71
C      10.78      11.40      11.13
C      10.35       8.30       6.25
