279

C      10.91       8.59      32.09
C      14.67       2.55      35.07
C      14.51       2.60      41.91
C      15.00       1.45      37.86
C      15.71       0.65       9.48
C       9.17      11.58      45.27
C      12.88       5.10      47.40
C       8.12      13.28      32.33
C      14.97       1.32      40.29
C      15.29       1.78      29.42
C      15.22       0.74      39.02
C      15.26       0.64      41.48
C       9.42      12.13       3.01
C       7.72      13.30      41.49
C       7.93      12.69      40.23
C      23.79      13.38      39.04
C       8.08      12.64      42.65
C      14.96       0.66      10.64
C       7.90      12.83      23.02
C       7.40      12.28      21.85
C       9.93      13.26       3.67
C       2.92       0.00       3.06
C      11.58      13.49       1.88
C      11.18      12.26       1.28
C      10.02      11.66       1.83
C      11.87      11.68       0.05
C      10.90      12.11      46.96
C       9.97      11.21      46.37
C       9.23      12.89      44.75
C      10.02      13.84      45.42
C      10.81      13.47      46.52
C      13.31      12.22      47.86
C      12.14      10.17       0.10
C      12.52       9.50      46.93
C      12.72       8.11      46.93
C      12.60       7.34       0.11
C      12.34       8.03       1.31
C      12.15       9.42       1.31
C      14.23      12.15       0.91
C      15.53      12.68       0.79
C      15.97      13.24      47.57
C      15.11      13.18      46.46
C      13.82      12.64      46.60
C      22.65      12.71      19.68
C       6.61      11.44      19.07
C      22.02      11.16      17.89
C      21.16      12.12      17.29
C      21.22      13.43      17.83
C      21.93      13.72      19.01
C      20.31      11.82      16.05
C      21.16      12.46      14.95
C      20.84      13.72      14.36
C      13.50       0.26      13.26
C      22.66      13.51      12.73
C      23.09      12.35      13.41
C      22.37      11.86      14.51
C      20.04      10.33      15.85
C      18.88      12.34      16.11
C      18.08      12.37      14.93
C      16.78      12.90      14.92
C      16.19      13.36      16.12
C      16.92      13.24      17.32
C      18.22      12.70      17.32
C      19.54       9.54      16.93
C      19.34       8.15      16.80
C      19.58       7.51      15.57
C      19.96       8.29      14.46
C      20.14       9.68      14.59
C      15.81       1.98      35.68
C      14.78       3.30      33.90
C      16.04       3.57      33.29
C      17.15       2.86      33.83
C      17.05       2.10      35.02
C      16.21       4.45      32.05
C      16.35       3.40      30.95
C      17.59       3.04      30.36
C       1.54       2.17      29.26
C      16.50       1.57      28.74
C      15.22       2.65      30.52
C      15.05       5.44      31.85
C      17.38       5.44      32.11
C      17.80       6.11      30.93
C      18.90       6.98      30.92
C      19.60       7.26      32.11
C      19.14       6.68      33.31
C      18.02       5.82      33.31
C      14.62       6.27      32.92
C      13.51       7.12      32.80
C      12.84       7.23      31.57
C      13.33       6.51      30.46
C      14.44       5.66      30.59
C       8.44      11.44      38.61
C      14.07       3.77      42.67
C       8.90      10.27      37.85
C       1.08       0.43       7.01
C       1.71       0.35       8.28
C       0.98       0.45       9.46
C      15.08       0.77       8.21
C      15.81       0.65       7.03
C       3.05       0.13       9.90
C      13.74       0.96       6.60
C      12.35      13.89      10.66
C      12.50       1.13       5.83
C       1.81       0.27       5.85
C       7.51      12.32      24.28
C       7.96      12.91      25.47
C       0.77       0.05      25.48
C       1.19       0.53      24.22
C       8.79      13.92      23.03
C       6.65      11.28      25.90
C       2.03       1.60      22.60
C      21.98      10.31      26.67
C       2.80       2.58      21.84
C       1.16       0.70      26.64
C      10.77       1.42      47.83
C      12.19       1.46      47.91
C      12.89       2.66      47.74
C      12.23       3.89      47.51
C      10.82       3.84      47.41
C      10.12       2.65      47.59
C      14.23       1.03       0.10
C       8.75       4.27      47.29
C      15.49       0.31       0.32
C       7.49       5.01      47.16
C      10.03       0.24       0.08
C       3.88       3.96      15.83
C       3.22       2.71      15.90
C       3.91       1.51      15.74
C       5.30       1.47      15.51
C       5.97       2.72      15.41
C       5.28       3.92      15.59
C       1.84       1.13      16.10
C       7.37       4.29      15.30
C       0.59       0.39      16.32
C       8.63       5.02      15.17
C       3.25       5.16      16.09
C       6.03       0.31      15.39
C       9.55       8.64      31.83
C       8.81       9.84      31.90
C       7.42       9.85      31.73
C       6.68       8.66      31.50
C       7.43       7.46      31.41
C       8.81       7.46      31.58
C       8.12      11.83      32.11
C       8.09       5.46      31.29
C       8.09       4.00      31.16
C       5.31       8.62      31.39
H      14.30       2.81      30.95
H       9.63      10.82       1.39
H      13.92       3.68      33.49
H       9.89      10.25      46.71
H       9.94      10.06      38.10
H      14.27       2.12      37.85
H      13.50       5.25      46.63
H       8.51      13.49      33.32
H      13.03       3.99      42.43
H       8.02      11.65      42.68
H       8.74      13.76      31.58
H      12.86       7.63      46.03
H      12.57       9.99      46.04
H      12.23       7.51       2.18
H      11.98       9.87       2.21
H      13.94      11.82       1.84
H      16.11      12.76       1.62
H      15.39      13.58      45.56
H      13.24      12.60      45.76
H       3.34       0.21      46.95
H       2.02       0.84      45.08
H       8.58      10.87      44.84
H       4.28       0.08       1.48
H       3.28       0.87       3.48
H       8.62      11.61       3.40
H      16.30      13.02      14.02
H      18.48      12.09      14.03
H      16.53      13.60      18.19
H      18.69      12.62      18.22
H      19.39       9.96      17.85
H      19.12       7.60      17.64
H      20.16       7.85      13.56
H      20.40      10.20      13.75
H       6.56      10.99      14.94
H       7.77      11.82      13.07
H      13.18       1.12      12.83
H      11.98       0.30      14.70
H      12.62       0.22      17.40
H       6.00      10.23      17.49
H       7.18      10.70      19.49
H      13.82       0.70      19.41
H      19.25       7.33      30.02
H      17.35       5.90      30.03
H      19.64       6.84      34.19
H      17.72       5.46      34.22
H      15.06       6.18      33.84
H      13.15       7.59      33.63
H      12.84       6.56      29.56
H      14.76       5.18      29.75
H      14.42       1.34      29.08
H       2.45       2.01      28.83
H       2.34       3.46      30.70
H       1.95       2.94      33.40
H      13.74       2.42      35.49
H       1.76       1.68      35.41
H      14.15       3.59      43.75
H      14.69       4.63      42.41
H       8.83      10.46      36.77
H       8.29       9.40      38.10
H      12.15      13.91      11.74
H       5.00       0.71      10.42
H      12.78      12.92      10.40
H      12.69       1.10       4.76
H      12.05       2.10       6.09
H      11.80       0.34       6.09
H       2.76       0.56       5.83
H      14.13       1.21      10.67
H      22.09      10.48      27.75
H       6.18       9.30      26.43
H      20.92      10.42      26.41
H       2.68       2.43      20.76
H       3.86       2.49      22.09
H       2.46       3.59      22.09
H       7.17      11.31      21.84
H       2.05       1.14      26.67
H      16.35       0.98       0.25
H      23.68      13.52      47.59
H      23.54      13.82       1.32
H       6.64       4.34      47.27
H       7.45       5.49      46.18
H       7.44       5.77      47.94
H      18.35      13.63       0.85
H       8.81      13.28      16.25
H      15.98       0.70      15.57
H      16.33       0.63      17.32
H       8.48       6.10      15.28
H       9.07       4.82      14.19
H       9.32       4.69      15.95
H      18.76       5.24      16.87
H      13.91      13.65      14.64
H      23.23      13.68      32.26
H       9.10       3.59      31.26
H       7.70       3.72      30.18
H       7.45       3.57      31.93
H      11.28       9.09      32.86
H      20.99       9.08      30.63
N      11.62       7.72      31.46
N      14.96       1.47      42.48
N      12.43       6.03       0.10
N      15.79       1.35      36.85
N       8.67      13.27      43.60
N      23.21      13.01      20.85
N      23.28      13.81      11.59
N       8.94       0.09      47.47
N       9.39      13.60       4.84
N       7.09       0.20      16.11
N       3.64       6.21      15.46
N       4.69       7.75      32.11
N      16.45       0.89      27.60
N       7.99      12.57      38.04
N       1.84       0.30      10.47
N      14.94       0.78       6.03
N       7.40      12.23      26.48
N       1.27       0.65      22.03
N      14.18       2.38      47.88
N       8.82       2.95      47.52
N       3.02       0.53      15.87
N       6.19       4.89      15.52
N       7.01      11.11      31.87
N       9.20       6.18      31.51
O      14.50       2.58      40.54
O       8.44      11.45      39.98
O       3.03       0.14       8.53
O      13.75       0.95       7.97
O       6.66      11.28      24.53
O       2.01       1.59      23.97
O      13.02       0.39       0.14
O       9.97       4.89      47.21
O       1.89       2.50      16.15
O       7.30       2.93      15.21
O       9.28      11.09      32.15
O       6.95       6.20      31.20
