20

C       4.55      13.73       1.63
C       7.45      14.22       1.28
H       2.56      14.08       2.44
H       9.39      14.96       1.85
N       9.57      13.36       0.55
C       6.76      13.26       0.53
H       5.02      12.10      -1.31
N       2.46      13.05       0.65
C       5.28      13.18       0.56
H       2.56      11.97      -1.12
H       7.06      11.58      -0.82
H       9.54      11.76      -0.76
H       5.05      14.22       2.46
C       3.16      13.65       1.63
C       3.15      12.50      -0.37
C       4.54      12.55      -0.45
C       8.84      14.23       1.27
H       6.93      14.98       1.86
C       7.53      12.37      -0.23
C       8.92      12.45      -0.20
