20

C       9.56      14.24      13.14
H       5.65      17.60      12.27
O       9.65      16.56      10.23
C       9.47      15.43      12.40
O       8.92      15.36      15.15
O      10.43      10.63      11.16
C       9.39      14.30      14.63
H      10.10      14.15       9.28
O       9.73      13.25      15.28
O      10.37      11.64       9.16
C      10.30      11.67      10.44
H       9.94      12.12      13.07
C      10.02      12.99      11.11
C       6.52      17.66      11.64
H       9.29      16.38      12.90
C       8.72      17.48      10.32
C       7.61      17.35      11.14
C       9.94      14.17      10.36
C       9.66      15.36      11.03
C       9.85      13.03      12.50
