20

H      -0.45      10.60       4.73
C      -0.88       7.41       2.63
O      -0.69       9.48       6.91
C      -1.05       7.32       4.00
C      -0.11      11.07       2.08
O      -0.03      11.08       0.79
O      -1.52       7.38       6.78
O      -0.94       6.22       1.80
H      -0.42       8.64       0.90
O       0.05      12.10       2.79
C      -1.05       8.44       6.26
H      -4.82       5.04       4.00
C      -2.92       5.37       2.80
H      -1.24       6.36       4.49
C      -0.43       9.76       2.74
C      -0.59       9.70       4.13
C      -0.90       8.49       4.76
C      -3.98       5.01       3.33
C      -1.85       5.29       1.92
C      -0.57       8.59       1.98
