972

H      32.96      22.07      55.16
H      35.64      17.55      55.26
H      34.10      19.66      58.34
H      34.00      19.66      50.26
H      36.86      15.41      55.80
H      31.67      24.17      55.47
H      35.58      17.55      38.90
H      33.00      22.13      38.80
H      34.09      19.69      35.71
H      34.18      19.76      43.78
H      31.75      24.26      38.27
H      36.74      15.38      38.60
H      31.96      18.46      53.74
H      31.99      18.51      40.38
H      24.88      22.13      57.25
H      24.72      19.81      57.58
H      22.31      15.63      57.57
H      20.43      14.30      57.12
H      18.58      17.55      55.16
H      21.16      22.12      55.26
H      20.10      19.73      58.34
H      16.45      21.83      58.34
H      16.43      21.79      55.96
H      22.21      18.49      53.74
H      18.45      20.64      51.59
H      20.15      19.65      50.26
H      23.63      17.66      56.52
H      22.93      18.06      58.10
H      17.27      20.30      53.93
H      18.15      21.83      53.94
H      22.40      24.26      55.80
H      17.41      15.38      55.47
H      23.13      17.94      51.55
H      19.22      20.64      60.42
H      33.78      14.33      57.25
H      31.85      15.62      57.58
H      29.44      19.80      57.57
H      29.22      22.09      57.11
H      -8.81      21.78      58.34
H      -8.84      21.81      55.96
H     -10.85      20.64      51.59
H      30.53      17.64      56.52
H      31.23      18.05      58.10
H     -10.55      21.84      53.93
H      -9.66      20.30      53.94
H      31.03      17.94      51.55
H     -11.22      19.98      60.42
H      22.57      10.52      57.25
H      24.66      11.55      57.58
H      29.48      11.54      57.58
H      31.57      10.58      57.12
H      29.69       7.35      55.16
H      24.44       7.30      55.26
H      27.04       7.58      58.34
H      27.05       3.37      58.34
H      27.09       3.38      55.96
H      27.06      10.02      53.74
H      27.08       5.70      51.59
H      27.08       7.66      50.26
H      27.07      11.68      56.52
H      27.07      10.86      58.10
H      27.97       4.84      53.93
H      26.19       4.83      53.94
H      21.97       7.31      55.80
H      32.15       7.43      55.47
H      27.07      11.09      51.55
H      26.69       6.36      60.42
H       6.00      22.62      26.58
H       6.16      24.95      26.91
H       8.57      29.12      26.91
H      10.45      30.45      26.45
H      12.30      27.21      24.49
H       9.73      22.63      24.59
H      10.78      25.02      27.67
H      14.43      22.92      27.67
H      14.45      22.97      25.29
H       8.67      26.26      23.07
H      12.43      24.12      20.92
H      10.73      25.10      19.59
H       7.25      27.10      25.85
H       7.95      26.69      27.43
H      13.62      24.46      23.26
H      12.74      22.92      23.27
H       8.48      20.50      25.13
H      13.47      29.37      24.80
H       7.75      26.81      20.88
H      11.67      24.11      29.75
H      -2.90      30.43      26.58
H      -0.96      29.13      26.91
H       1.44      24.96      26.91
H       1.66      22.66      26.45
H      -2.08      22.68      24.49
H      -4.76      27.20      24.59
H      -3.22      25.09      27.67
H      -6.85      22.98      27.67
H      -6.82      22.94      25.29
H      -1.08      26.29      23.07
H      -4.82      24.11      20.92
H      -3.12      25.09      19.59
H       0.35      27.11      25.85
H      -0.35      26.70      27.43
H      -5.12      22.92      23.26
H      -6.01      24.45      23.27
H      -5.98      29.35      25.13
H      -0.79      20.59      24.80
H      -0.15      26.82      20.88
H      -4.44      24.78      29.75
H       8.31      34.24      26.58
H       6.22      33.21      26.91
H       1.40      33.21      26.91
H      -0.69      34.17      26.45
H       1.19      37.40      24.49
H       6.44      37.46      24.59
H       3.85      37.18      27.67
H      27.11       1.07      27.67
H      27.06       1.07      25.29
H       3.82      34.73      23.07
H       3.80      39.05      20.92
H       3.80      37.09      19.59
H       3.81      33.08      25.85
H       3.81      33.89      27.43
H       2.92      39.91      23.26
H       4.69      39.92      23.27
H       8.91      37.44      25.13
H      -1.27      37.32      24.81
H       3.81      33.66      20.88
H       4.19      38.40      29.75
H       1.61      22.63       6.16
H       1.45      24.95       5.83
H      -0.96      29.12       5.83
H      -2.84      30.45       6.29
H      -4.70      27.20       8.23
H      -2.12      22.63       8.13
H      -3.21      25.07       5.04
H      -6.86      22.96       5.03
H      -6.84      22.94       7.41
H      -1.11      26.24       9.72
H      -4.93      24.05      11.73
H      -3.30      25.00      13.11
H       0.36      27.09       6.88
H      -0.34      26.69       5.30
H      -6.04      24.43       9.41
H      -5.16      22.89       9.41
H      -0.87      20.50       7.60
H      -5.86      29.37       7.93
H      -0.31      26.72      12.00
H      -4.29      24.49       2.92
H      10.50      30.43       6.16
H       8.57      29.13       5.83
H       6.16      24.96       5.83
H       5.95      22.67       6.29
H       9.69      22.68       8.23
H      12.37      27.20       8.13
H      10.80      25.03       5.04
H      14.45      22.93       5.03
H      14.46      22.95       7.40
H       8.73      26.27       9.72
H      12.54      24.05      11.73
H      10.90      24.99      13.11
H       7.26      27.11       6.88
H       7.96      26.70       5.30
H      12.77      22.90       9.41
H      13.66      24.43       9.41
H      13.59      29.35       7.60
H       8.39      20.59       7.93
H       7.92      26.72      12.00
H      11.83      24.39       2.93
H      -0.70      34.23       6.16
H       1.39      33.20       5.83
H       6.21      33.21       5.83
H       8.30      34.17       6.29
H       6.42      37.41       8.23
H       1.17      37.46       8.13
H       3.82      37.18       5.04
H      27.10       1.08       5.03
H      27.07       1.08       7.40
H       3.79      34.78       9.72
H       3.81      39.18      11.73
H       3.81      37.30      13.11
H       3.79      33.08       6.88
H       3.80      33.89       5.30
H       4.69      39.96       9.41
H       2.91      39.96       9.41
H      -1.31      37.44       7.60
H       8.88      37.32       7.93
H       3.80      33.85      12.00
H       3.87      38.41       2.92
H      29.27      22.13      36.83
H      29.43      19.80      36.50
H      31.84      15.63      36.50
H      33.72      14.30      36.96
H      -8.81      21.79      35.70
H      -8.82      21.81      38.07
H     -10.73      20.70      42.39
H      30.52      17.66      37.55
H      31.22      18.06      35.97
H      -9.62      20.33      40.08
H     -10.51      21.86      40.08
H      31.19      18.03      42.66
H     -11.37      20.25      33.58
H      20.38      14.32      36.83
H      22.31      15.62      36.50
H      24.72      19.80      36.50
H      24.93      22.09      36.96
H      21.19      22.08      38.90
H      18.51      17.56      38.80
H      20.08      19.72      35.71
H      16.43      21.82      35.70
H      16.42      21.80      38.07
H      22.15      18.49      40.38
H      18.34      20.70      42.39
H      19.98      19.76      43.78
H      23.62      17.64      37.55
H      22.92      18.05      35.97
H      18.11      21.85      40.08
H      17.22      20.32      40.08
H      17.29      15.41      38.27
H      22.49      24.16      38.60
H      22.96      18.03      42.66
H      19.05      20.37      33.58
H      31.58      10.52      36.83
H      29.49      11.55      36.50
H      24.67      11.55      36.50
H      22.58      10.59      36.96
H      24.46       7.35      38.90
H      29.72       7.29      38.80
H      27.06       7.57      35.71
H      27.06       3.36      35.70
H      27.08       3.36      38.07
H      27.09       9.98      40.38
H      27.08       5.57      42.39
H      27.07       7.46      43.78
H      27.09      11.67      37.55
H      27.08      10.87      35.97
H      26.20       4.80      40.08
H      27.97       4.79      40.08
H      32.19       7.31      38.27
H      22.01       7.43      38.60
H      27.08      10.91      42.66
H      27.01       6.35      33.59
H      20.48      13.26      54.20
H      21.85      12.50      52.35
H      23.49      11.83      52.49
H      22.93      13.01      53.68
H      28.29      22.57      54.20
H      26.95      21.76      52.35
H      25.56      20.68      52.49
H      26.86      20.58      53.68
H      32.45      11.15      54.20
H      32.43      12.72      52.35
H      32.18      14.46      52.49
H      31.45      13.39      53.68
H      10.40      31.50      23.53
H       9.03      32.26      21.68
H       7.40      32.92      21.82
H       7.95      31.74      23.01
H       2.59      22.19      23.53
H       3.93      22.99      21.68
H       5.32      24.07      21.82
H       4.02      24.18      23.01
H      -1.57      33.60      23.53
H      -1.55      32.04      21.68
H      -1.30      30.29      21.82
H      -0.56      31.36      23.01
H      -2.79      31.50       9.21
H      -1.42      32.27      11.05
H       0.21      32.92      10.92
H      -0.35      31.74       9.73
H       5.02      22.19       9.21
H       3.67      22.98      11.05
H       2.29      24.07      10.92
H       3.59      24.18       9.73
H       9.18      33.60       9.21
H       9.15      32.04      11.05
H       8.91      30.29      10.92
H       8.17      31.36       9.73
H      33.67      13.26      39.88
H      32.30      12.50      41.72
H      30.67      11.83      41.59
H      31.23      13.01      40.39
H      25.86      22.57      39.88
H      27.21      21.76      41.72
H      28.59      20.68      41.59
H      27.30      20.58      40.40
H      21.70      11.15      39.88
H      21.73      12.72      41.72
H      21.97      14.46      41.59
H      22.71      13.39      40.40
H      24.14      17.36      48.25
H      25.98      17.32      46.78
H      26.06      16.24      45.38
H      25.09      15.77      46.78
H      30.02      17.35      48.25
H      29.06      15.77      46.78
H      28.09      16.24      45.38
H      28.17      17.32      46.78
H      27.08      12.26      48.25
H      26.18      13.88      46.78
H      27.08      14.49      45.39
H      27.97      13.88      46.78
H       6.74      27.40      17.58
H       4.90      27.43      16.12
H       4.82      28.51      14.72
H       5.79      28.98      16.11
H       0.86      27.40      17.58
H       1.82      28.98      16.11
H       2.79      28.51      14.72
H       2.71      27.43      16.11
H       3.80      32.49      17.58
H       4.70      30.87      16.12
H       3.81      30.27      14.72
H       2.91      30.87      16.12
H      13.49      20.97       1.72
H      14.04      18.58       1.65
H      14.25      17.64       0.17
H      13.18      19.05       0.16
H      -8.08      24.77       1.72
H     -10.42      25.49       1.65
H     -11.34      25.77       0.17
H      -9.59      26.00       0.16
H      29.27       1.24       1.72
H      31.07       2.91       1.65
H      31.77       3.55       0.17
H      31.09       1.93       0.16
H      17.39      23.79      32.39
H      16.84      26.18      32.32
H      16.63      27.11      30.83
H      17.70      25.71      30.83
H      -7.59      19.98      32.39
H      -5.24      19.26      32.32
H      -4.33      18.98      30.83
H      -6.08      18.75      30.83
H      24.88       3.21      32.39
H      23.09       1.54      32.32
H      22.38       0.89      30.84
H      23.06       2.51      30.83
C      33.77      19.50      54.11
C      33.91      19.60      51.27
C      32.22      21.59      55.67
C      34.83      17.16      55.76
C      33.68      19.46      55.63
C      30.85      23.63      55.65
C      35.97      14.98      55.88
C      33.79      19.55      39.94
C      34.04      19.68      42.77
C      34.79      17.15      38.39
C      32.26      21.63      38.31
C      33.68      19.48      38.42
C      35.87      14.94      38.43
C      30.93      23.70      38.19
C      32.80      18.96      51.87
C      32.76      18.92      53.29
C      33.71      17.99      56.02
C      32.41      20.21      56.00
C      31.03      22.29      56.00
C      34.88      15.80      56.17
C      32.92      19.04      42.22
C      32.80      18.98      40.80
C      32.41      20.24      38.04
C      33.69      18.00      38.06
C      34.80      15.77      38.07
C      31.10      22.35      37.90
C      32.60      17.39      56.67
C      31.34      19.56      56.67
C      30.06      21.62      56.76
C      33.78      15.28      56.87
C      31.34      19.57      37.40
C      32.59      17.41      37.40
C      33.73      15.26      37.31
C      30.09      21.65      37.20
C      31.97      18.49      43.07
C      31.91      18.45      45.67
C      31.80      18.38      48.48
C      20.40      19.53      54.11
C      19.30      20.15      53.47
C      18.26      20.74      55.72
C      19.34      20.12      56.40
C      19.32      20.16      57.83
C      18.28      20.78      58.59
C      17.22      21.36      57.86
C      17.21      21.34      56.45
C      19.24      20.19      52.06
C      20.25      19.60      51.27
C      21.36      18.97      51.87
C      21.41      18.95      53.29
C      21.75      20.23      56.02
C      22.82      19.57      56.67
C      21.57      17.40      56.67
C      20.47      18.00      56.00
C      21.53      16.05      57.06
C      20.43      15.26      56.76
C      19.36      15.76      56.00
C      19.37      17.15      55.67
C      21.90      21.63      55.76
C      23.06      22.35      56.17
C      24.06      21.65      56.87
C      23.97      20.28      57.08
C      20.49      19.47      55.63
C      22.79      18.14      57.02
C      18.20      20.78      54.24
C      18.29      14.94      55.65
C      22.36      18.38      51.09
C      23.22      23.70      55.88
C      18.36      20.89      59.99
C      34.86      20.14      53.47
C     -10.66      20.75      55.72
C      34.81      20.13      56.40
C      34.85      20.13      57.83
C     -10.63      20.72      58.59
C      -9.60      21.35      57.86
C      -9.62      21.36      56.45
C     -11.63      20.18      52.06
C      30.19      20.26      57.06
C      32.64      16.04      57.08
C      31.38      18.13      57.02
C     -10.59      20.79      54.23
C      31.79      18.38      51.09
C     -10.58      20.59      59.99
C      27.06       7.94      54.11
C      27.07       6.68      53.47
C      27.09       5.48      55.72
C      27.08       6.73      56.40
C      27.06       6.69      57.83
C      27.04       5.48      58.59
C      27.07       4.27      57.86
C      27.09       4.28      56.45
C      27.07       6.61      52.06
C      27.08       7.77      51.27
C      27.07       9.05      51.87
C      27.06       9.11      53.29
C      25.78       8.75      56.02
C      25.82      10.01      56.67
C      28.32      10.01      56.67
C      28.36       8.76      56.00
C      29.51      10.66      57.06
C      30.75      10.10      56.76
C      30.85       8.92      56.00
C      29.64       8.24      55.67
C      24.50       8.19      55.76
C      23.30       8.83      56.17
C      23.40      10.05      56.87
C      24.63      10.65      57.08
C      27.07       8.04      55.63
C      27.07      10.70      57.02
C      27.08       5.40      54.24
C      32.09       8.40      55.65
C      27.07      10.21      51.09
C      22.04       8.30      55.88
C      26.91       5.49      59.99
C      10.48      25.22      23.45
C      11.58      24.60      22.80
C      12.62      24.02      25.05
C      11.54      24.63      25.74
C      11.57      24.60      27.17
C      12.60      23.98      27.92
C      13.66      23.40      27.19
C      13.67      23.42      25.78
C      11.64      24.57      21.39
C      10.64      25.15      20.61
C       9.52      25.79      21.20
C       9.47      25.81      22.62
C       9.14      24.52      25.35
C       8.06      25.18      26.01
C       9.31      27.35      26.00
C      10.41      26.76      25.33
C       9.35      28.70      26.39
C      10.45      29.50      26.09
C      11.53      28.99      25.33
C      11.51      27.61      25.00
C       8.98      23.13      25.09
C       7.83      22.41      25.50
C       6.82      23.10      26.20
C       6.92      24.48      26.41
C      10.40      25.28      24.96
C       8.09      26.61      26.35
C      12.68      23.97      23.57
C      12.59      29.81      24.98
C       8.52      26.37      20.42
C       7.66      21.05      25.21
C      12.53      23.86      29.32
C      -2.89      25.25      23.45
C      -3.98      24.61      22.80
C      -5.00      24.00      25.05
C      -3.93      24.63      25.74
C      -3.97      24.62      27.16
C      -5.03      24.03      27.92
C      -6.06      23.40      27.19
C      -6.05      23.39      25.78
C      -4.03      24.57      21.39
C      -3.03      25.15      20.61
C      -1.92      25.80      21.20
C      -1.88      25.83      22.62
C      -2.82      26.76      25.35
C      -1.72      27.36      26.00
C      -0.46      25.20      26.00
C      -1.53      24.54      25.33
C       0.69      24.49      26.39
C       0.83      23.14      26.09
C      -0.15      22.46      25.33
C      -1.34      23.17      25.00
C      -3.95      27.60      25.09
C      -4.00      28.96      25.50
C      -2.90      29.48      26.20
C      -1.75      28.71      26.41
C      -2.80      25.29      24.96
C      -0.49      26.62      26.35
C      -5.07      23.97      23.57
C       0.03      21.13      24.98
C      -0.91      26.38      20.42
C      -5.09      29.78      25.21
C      -5.09      24.16      29.32
C       3.82      36.81      23.45
C       3.81      38.07      22.80
C       3.79      39.27      25.05
C       3.80      38.03      25.74
C       3.82      38.07      27.17
C       3.84      39.28      27.92
C      27.08       0.17      27.19
C      27.06       0.17      25.78
C       3.81      38.15      21.39
C       3.81      36.98      20.61
C       3.81      35.70      21.20
C       3.82      35.65      22.62
C       5.10      36.00      25.35
C       5.06      34.74      26.01
C       2.56      34.74      26.00
C       2.53      35.99      25.33
C       1.37      34.09      26.39
C       0.13      34.65      26.09
C       0.04      35.84      25.33
C       1.24      36.51      25.00
C       6.38      36.56      25.09
C       7.59      35.92      25.50
C       7.49      34.71      26.20
C       6.25      34.10      26.41
C       3.81      36.71      24.96
C       3.81      34.05      26.35
C       3.80      39.35      23.57
C      -1.21      36.35      24.98
C       3.81      34.54      20.42
C       8.84      36.46      25.21
C       3.97      39.26      29.32
C      -2.90      25.20       9.27
C      -4.02      24.57       9.88
C      -5.02      24.00       7.65
C      -3.94      24.63       6.97
C      -3.98      24.62       5.54
C      -5.03      24.02       4.79
C      -6.07      23.41       5.52
C      -6.07      23.39       6.92
C      -4.13      24.51      11.28
C      -3.16      25.07      12.10
C      -2.03      25.72      11.55
C      -1.92      25.77      10.13
C      -1.53      24.52       7.37
C      -0.46      25.18       6.73
C      -1.71      27.35       6.73
C      -2.81      26.75       7.40
C      -1.74      28.70       6.35
C      -2.84      29.49       6.64
C      -3.92      28.99       7.40
C      -3.90      27.60       7.73
C      -1.37      23.13       7.64
C      -0.22      22.41       7.23
C       0.79      23.10       6.53
C       0.69      24.48       6.33
C      -2.80      25.27       7.75
C      -0.49      26.61       6.38
C      -5.11      23.94       9.12
C      -4.98      29.81       7.76
C      -1.09      26.27      12.40
C      -0.05      21.05       7.52
C      -5.05      24.05       3.38
C      10.53      25.23       9.27
C      11.64      24.58       9.88
C      12.63      24.00       7.64
C      11.55      24.62       6.97
C      11.58      24.59       5.54
C      12.62      23.98       4.79
C      13.67      23.38       5.51
C      13.68      23.40       6.91
C      11.74      24.51      11.28
C      10.77      25.08      12.10
C       9.65      25.73      11.55
C       9.54      25.80      10.13
C      10.44      26.76       7.37
C       9.33      27.36       6.73
C       8.07      25.20       6.73
C       9.14      24.54       7.40
C       6.92      24.49       6.35
C       6.78      23.14       6.64
C       7.76      22.46       7.40
C       8.95      23.17       7.73
C      11.56      27.60       7.64
C      11.61      28.96       7.23
C      10.50      29.48       6.53
C       9.36      28.71       6.33
C      10.42      25.29       7.75
C       8.10      26.62       6.38
C      12.72      23.95       9.12
C       7.58      21.13       7.76
C       8.70      26.27      12.40
C      12.70      29.78       7.52
C      12.60      23.96       3.38
C       3.79      36.85       9.27
C       3.79      38.13       9.88
C       3.80      39.28       7.65
C       3.80      38.04       6.97
C       3.82      38.07       5.54
C       3.83      39.28       4.79
C      27.09       0.18       5.51
C      27.07       0.18       6.92
C       3.80      38.26      11.28
C       3.80      37.14      12.10
C       3.80      35.84      11.55
C       3.79      35.71      10.13
C       2.51      36.01       7.37
C       2.54      34.74       6.73
C       5.05      34.74       6.73
C       5.08      35.99       7.40
C       6.23      34.09       6.35
C       7.47      34.65       6.64
C       7.57      35.84       7.40
C       6.37      36.52       7.73
C       1.22      36.56       7.64
C       0.02      35.92       7.23
C       0.12      34.70       6.53
C       1.36      34.10       6.33
C       3.79      36.72       7.75
C       3.80      34.05       6.38
C       3.80      39.39       9.12
C       8.82      36.35       7.76
C       3.80      34.75      12.40
C      -1.23      36.46       7.52
C       3.86      39.28       3.38
C     -11.65      20.18      40.55
C     -10.65      20.76      38.31
C      34.82      20.13      37.64
C      34.86      20.14      36.21
C     -10.63      20.73      35.46
C      -9.59      21.35      36.18
C      -9.60      21.36      37.58
C     -11.53      20.24      41.95
C      32.62      16.05      37.02
C      30.19      20.28      36.99
C      31.37      18.14      37.05
C     -10.56      20.81      39.78
C     -10.62      20.70      34.05
C      20.35      19.52      39.94
C      19.25      20.17      40.55
C      18.25      20.75      38.31
C      19.33      20.13      37.64
C      19.31      20.16      36.21
C      18.27      20.77      35.46
C      17.21      21.37      36.18
C      17.20      21.35      37.58
C      19.14      20.24      41.95
C      20.11      19.68      42.77
C      21.23      19.03      42.22
C      21.34      18.96      40.80
C      20.44      17.99      38.04
C      21.56      17.39      37.40
C      22.81      19.56      37.40
C      21.74      20.21      38.06
C      23.96      20.26      37.02
C      24.10      21.61      37.31
C      23.12      22.29      38.07
C      21.93      21.59      38.39
C      19.32      17.16      38.31
C      19.27      15.80      37.90
C      20.38      15.27      37.20
C      21.52      16.04      37.00
C      20.47      19.46      38.42
C      22.78      18.13      37.05
C      18.16      20.80      39.78
C      23.30      23.63      38.43
C      22.18      18.48      43.07
C      18.18      14.98      38.19
C      18.28      20.80      34.05
C      27.09       7.90      39.94
C      27.09       6.62      40.55
C      27.08       5.47      38.31
C      27.08       6.72      37.64
C      27.07       6.68      36.21
C      27.05       5.47      35.46
C      27.07       4.26      36.18
C      27.08       4.26      37.59
C      27.08       6.49      41.95
C      27.08       7.62      42.77
C      27.08       8.91      42.22
C      27.09       9.04      40.80
C      28.37       8.75      38.04
C      28.34      10.01      37.39
C      25.84      10.01      37.40
C      25.80       8.76      38.06
C      24.65      10.66      37.02
C      23.41      10.10      37.31
C      23.31       8.92      38.07
C      24.52       8.24      38.39
C      29.66       8.19      38.31
C      30.86       8.83      37.90
C      30.76      10.05      37.20
C      29.52      10.65      36.99
C      27.09       8.03      38.42
C      27.09      10.70      37.05
C      27.08       5.36      39.78
C      22.06       8.40      38.43
C      27.08      10.01      43.07
C      32.11       8.30      38.19
C      27.02       5.47      34.05
C      19.11      12.63      55.64
C      20.25      12.48      54.82
C      20.99      11.26      54.79
C      20.52      10.21      55.64
C      22.08      11.11      53.90
C      22.62      12.16      53.06
C      28.44      24.07      55.64
C      27.74      23.16      54.82
C      26.31      23.13      54.79
C      25.64      24.06      55.64
C      25.63      22.26      53.90
C      26.28      21.27      53.06
C      33.68      10.27      55.64
C      33.24      11.33      54.82
C      33.93      12.58      54.79
C      35.07      12.70      55.65
C      33.52      13.61      53.91
C      32.33      13.54      53.06
C      11.77      32.12      24.97
C      10.63      32.27      24.15
C       9.89      33.49      24.12
C      10.36      34.54      24.98
C       8.80      33.65      23.24
C       8.27      32.59      22.39
C       2.44      20.69      24.97
C       3.14      21.59      24.15
C       4.57      21.62      24.12
C       5.24      20.69      24.98
C       5.25      22.49      23.24
C       4.60      23.48      22.39
C      -2.80      34.48      24.97
C      -2.36      33.42      24.15
C      -3.05      32.17      24.12
C      -4.19      32.05      24.98
C      -2.63      31.15      23.24
C      -1.45      31.21      22.39
C      -4.16      32.12       7.77
C      -3.02      32.27       8.58
C      -2.29      33.49       8.62
C      -2.75      34.54       7.76
C      -1.19      33.64       9.49
C      -0.66      32.59      10.34
C       5.16      20.68       7.77
C       4.47      21.60       8.58
C       3.04      21.62       8.62
C       2.37      20.69       7.76
C       2.36      22.50       9.49
C       3.01      23.48      10.34
C      10.41      34.48       7.77
C       9.97      33.42       8.58
C      10.66      32.17       8.62
C      11.80      32.05       7.76
C      10.24      31.15       9.50
C       9.06      31.21      10.34
C      35.04      12.63      38.44
C      33.90      12.48      39.25
C      33.17      11.26      39.29
C      33.64      10.22      38.43
C      32.08      11.11      40.17
C      31.54      12.16      41.01
C      25.72      24.07      38.44
C      26.42      23.16      39.25
C      27.84      23.13      39.29
C      28.51      24.06      38.43
C      28.52      22.26      40.17
C      27.87      21.27      41.01
C      20.48      10.28      38.43
C      20.91      11.33      39.25
C      20.22      12.58      39.29
C      19.09      12.70      38.43
C      20.64      13.61      40.17
C      21.82      13.54      41.01
C      22.36      18.38      48.48
C      23.38      17.79      47.72
C      23.35      17.81      46.30
C      22.25      18.45      45.67
C      24.35      17.23      45.54
C      25.45      16.60      46.17
C      30.78      17.79      47.72
C      30.81      17.81      46.30
C      29.80      17.23      45.54
C      28.71      16.60      46.17
C      27.08      10.21      48.48
C      27.08      11.38      47.72
C      27.08      11.35      46.30
C      27.08      10.08      45.67
C      27.08      12.51      45.54
C      27.08      13.77      46.17
C       8.53      26.37      17.81
C       7.50      26.96      17.06
C       7.54      26.94      15.63
C       8.63      26.31      15.00
C       6.53      27.52      14.88
C       5.44      28.15      15.50
C      -0.92      26.37      17.81
C       0.10      26.96      17.06
C       0.07      26.94      15.63
C      -1.02      26.31      15.00
C       1.08      27.52      14.88
C       2.17      28.15      15.50
C       3.81      34.55      17.81
C       3.80      33.37      17.06
C       3.80      33.40      15.63
C       3.80      34.67      15.00
C       3.80      32.24      14.88
C       3.80      30.98      15.50
C      14.42      22.83       1.86
C      14.31      21.50       1.41
C      15.30      20.90       0.59
C      16.39      21.73       0.18
C      15.21      19.54       0.21
C      14.12      18.65       0.56
C      -6.92      23.04       1.84
C      -8.03      23.80       1.41
C      -9.05      23.24       0.58
C      -8.87      21.88       0.18
C     -10.18      23.99       0.21
C     -10.39      25.38       0.56
C      27.20       1.10       1.84
C      28.41       1.68       1.41
C      28.43       2.84       0.58
C      27.16       3.37       0.18
C      29.65       3.45       0.21
C      30.96       2.93       0.56
C      16.47      21.92      32.51
C      16.58      23.25      32.08
C      15.58      23.86      31.25
C      14.49      23.03      30.85
C      15.67      25.22      30.88
C      16.77      26.10      31.23
C      -8.74      21.71      32.51
C      -7.64      20.95      32.08
C      -6.62      21.52      31.25
C      -6.79      22.88      30.85
C      -5.49      20.76      30.87
C      -5.27      19.37      31.23
C      26.96       3.34      32.51
C      25.75       2.77      32.08
C      25.73       1.60      31.25
C      26.99       1.07      30.85
C      24.50       1.00      30.87
C      23.19       1.51      31.23
N      29.75      24.29      55.54
N      35.95      13.70      55.69
N      35.88      13.66      38.53
N      29.82      24.32      38.39
N      32.85      18.99      46.47
N      32.81      18.97      47.79
N      32.10      18.56      44.35
N      19.43      10.45      56.42
N      18.76      11.58      56.41
N      18.27      13.66      55.54
N      20.94       8.95      55.69
N      26.40      24.89      56.42
N      27.70      24.90      56.41
N      24.33      24.32      55.69
N      35.41      11.63      56.42
N      34.77      10.50      56.41
N      33.22       9.03      55.54
N      11.46      34.30      25.75
N      12.12      33.17      25.74
N      12.61      31.10      24.87
N       9.94      35.80      25.02
N       4.49      19.87      25.75
N       3.18      19.85      25.74
N       1.14      20.47      24.87
N       6.55      20.43      25.02
N      -4.53      33.12      25.75
N      -3.89      34.26      25.74
N      -2.33      35.72      24.87
N      -5.07      31.05      25.02
N      -3.85      34.30       6.99
N      -4.51      33.17       6.99
N      -5.00      31.10       7.86
N      -2.33      35.80       7.72
N       3.12      19.87       6.99
N       4.43      19.85       6.99
N       6.47      20.47       7.86
N       1.06      20.43       7.72
N      12.14      33.12       6.99
N      11.49      34.26       6.99
N       9.94      35.72       7.86
N      12.68      31.05       7.72
N      34.73      10.45      37.66
N      35.39      11.58      37.66
N      33.21       8.95      38.39
N      27.76      24.89      37.66
N      26.45      24.90      37.66
N      24.41      24.29      38.53
N      18.75      11.63      37.66
N      19.39      10.50      37.66
N      20.94       9.03      38.53
N      18.20      13.70      38.39
N      21.30      18.99      46.47
N      21.35      18.97      47.79
N      22.40      18.36      49.80
N      22.06      18.56      44.35
N      31.76      18.36      49.80
N      27.08       8.99      46.47
N      27.08       9.04      47.79
N      27.08      10.25      49.80
N      27.08       9.86      44.35
N       9.58      25.76      15.81
N       9.53      25.79      17.12
N       8.48      26.39      19.13
N       8.83      26.20      13.68
N      -1.97      25.76      15.81
N      -1.93      25.79      17.12
N      -0.88      26.39      19.13
N      -1.22      26.19      13.68
N       3.80      35.76      15.81
N       3.80      35.71      17.12
N       3.81      34.50      19.13
N       3.80      34.89      13.68
N      16.43      23.00       0.66
N      15.50      23.53       1.43
N      13.46      23.42       2.58
N      17.45      21.29      60.82
N      -7.78      21.21       0.65
N      -6.87      21.75       1.42
N      -5.96      23.55       2.61
N      -9.78      21.18      60.82
N      26.04       2.76       0.65
N      26.05       1.70       1.42
N      27.16       0.01       2.61
N      27.01       4.50      60.82
N      14.45      21.75      31.32
N      15.38      21.23      32.09
N      17.40      21.34      33.28
N      13.43      23.46      30.15
N      -7.88      23.54      31.32
N      -8.80      23.00      32.09
N      -9.70      21.20      33.28
N      -5.89      23.57      30.15
N      28.11       1.68      31.32
N      28.10       2.74      32.09
N      26.99       4.43      33.28
N       3.87      40.25      30.15
O      34.27      14.53      53.64
O      29.70      22.45      40.44
O      22.51       9.99      53.64
O      24.46      22.45      53.64
O       8.37      34.76      22.97
O       6.42      22.31      22.97
O      -3.39      30.22      22.97
O      -0.77      34.76       9.77
O       1.18      22.30       9.77
O      10.99      30.22       9.77
O      31.65       9.99      40.43
O      19.89      14.53      40.44
O      24.38      17.22      44.32
O      29.78      17.22      44.32
O      27.08      12.54      44.32
O       6.51      27.54      13.65
O       1.10      27.53      13.65
O       3.80      32.22      13.65
O      16.11      19.00      60.90
O     -11.09      23.48      60.90
O      29.66       4.49      60.90
O      14.77      25.75      30.23
O      -4.58      21.27      30.23
O       1.22      40.27      30.23
