22

C       5.92       4.90      11.97
O       5.08       1.01      12.45
C       1.36       4.63      12.16
O       2.40       5.43      15.46
O       1.08       3.52      15.64
O       2.88       1.26      15.47
O       3.78       3.46      14.01
O       6.11       3.71      12.50
O       5.14       5.82      12.42
O       2.32       5.38      12.64
O       0.99       3.47      12.60
O       2.79       1.22      12.65
O       5.17       1.06      15.49
O       6.20       3.76      15.32
O       5.23       5.87      15.46
C       3.90       1.19      11.92
C       6.05       4.96      15.86
C       1.50       4.68      16.06
C       4.00       0.80      15.96
Cr       5.57       2.45      13.94
Cr       3.75       5.53      14.00
Cr       2.02       2.40      14.09
