512

C       3.09       4.99       4.27
C       3.69       4.20       5.28
C       3.62       2.79       5.24
C       2.97       2.18       4.15
C       2.37       2.94       3.12
C       2.43       4.35       3.19
C       3.16       6.41       4.35
C       2.54       7.12       5.41
C       2.61       8.54       5.45
C       3.29       9.23       4.43
C       3.91       8.54       3.36
C       3.85       7.13       3.34
C      15.19      26.35       4.25
C      15.82      27.15       3.27
C      15.79      28.56       3.35
C      15.15      29.16       4.46
C      14.52      28.38       5.46
C      14.54      26.97       5.35
C      15.19      24.93       4.11
C      14.54      24.30       3.01
C      14.52      22.88       2.92
C      15.14      22.12       3.92
C      15.79      22.72       5.02
C      15.82      24.13       5.09
C      15.17       6.54      24.18
C      14.55       7.33      25.17
C      14.59       8.74      25.12
C      15.24       9.35      24.03
C      15.86       8.60      23.02
C      15.82       7.18      23.09
C      15.13       5.12      24.28
C      15.78       4.44      25.34
C      15.75       3.03      25.41
C      15.06       2.31      24.40
C      14.41       2.97      23.33
C      14.45       4.38      23.29
C       3.03      25.03      24.06
C       2.37      24.29      23.05
C       2.38      22.88      23.05
C       3.05      22.21      24.09
C       3.71      22.91      25.12
C       3.69      24.33      25.11
C       2.99      26.45      24.03
C       3.62      27.18      23.00
C       3.57      28.60      22.99
C       2.89      29.26      24.03
C       2.26      28.55      25.08
C       2.30      27.14      25.06
C       9.15      35.66      13.52
C       8.41      36.62      12.79
C       8.32      36.53      11.39
C       8.96      35.47      10.71
C       9.71      34.51      11.42
C       9.80      34.60      12.83
C       9.16      35.73      14.94
C       9.85      36.75      15.63
C       9.86      36.77      17.04
C       9.16      35.77      17.76
C       8.44      34.77      17.08
C       8.44      34.76      15.67
C      21.12      35.61      34.85
C      20.41      34.64      35.59
C      20.36      34.69      36.99
C      21.03      35.73      37.67
C      21.76      36.71      36.95
C      21.80      36.65      35.54
C      21.11      35.55      33.43
C      21.77      34.51      32.73
C      21.79      34.52      31.31
C      21.14      35.56      30.61
C      20.46      36.58      31.30
C      20.45      36.57      32.71
C      21.22      15.74      14.82
C      21.89      16.76      15.53
C      21.94      16.74      16.94
C      21.31      15.69      17.64
C      20.63      14.67      16.95
C      20.59      14.69      15.53
C      21.21      15.77      13.40
C      20.45      16.73      12.69
C      20.42      16.70      11.28
C      21.15      15.71      10.58
C      21.93      14.76      11.28
C      21.96      14.81      12.69
C       8.97      15.70      33.35
C       9.72      14.73      32.64
C       9.79      14.78      31.23
C       9.13      15.81      30.53
C       8.38      16.78      31.23
C       8.31      16.73      32.64
C       8.98      15.67      34.77
C       8.35      14.62      35.49
C       8.35      14.64      36.90
C       9.00      15.69      37.59
C       9.65      16.72      36.88
C       9.64      16.70      35.48
C      22.42      37.73      37.67
C      23.83      37.71      37.80
C      23.77      39.61      39.26
C      22.36      39.70      39.13
C      21.70      38.74      38.33
C       0.24       0.65       0.27
C       2.30       1.26       1.31
C       1.66       2.26       2.09
C       0.28       2.45       1.90
C      23.76       1.65       1.00
C      22.36       1.78       0.82
C      21.66       0.88      39.84
C      10.36      33.48      10.71
C      11.77      33.44      10.62
C      11.70      31.57       9.13
C      10.28      31.53       9.21
C       9.63      32.51      10.00
C      12.39      30.68       8.29
C      14.46      30.01       7.30
C      13.81      29.06       6.49
C      12.42      28.91       6.63
C      11.68      29.72       7.52
C      10.27      29.64       7.65
C       9.57      30.56       8.46
C      19.97      13.65      17.68
C      18.57      13.66      17.82
C      18.65      11.78      19.30
C      20.06      11.70      19.17
C      20.71      12.66      18.36
C      17.96      10.89      20.15
C      15.91      10.26      21.20
C      16.56       9.28      21.98
C      17.95       9.10      21.80
C      18.68       9.91      20.89
C      20.08       9.79      20.72
C      20.77      10.70      19.88
C       7.73      17.80      30.48
C       6.34      17.79      30.31
C       6.44      19.67      28.84
C       7.85      19.75      29.00
C       8.48      18.80      29.83
C       5.77      20.55      27.96
C       3.74      21.19      26.88
C       4.41      22.18      26.13
C       5.79      22.36      26.34
C       6.50      21.54      27.25
C       7.90      21.66      27.45
C       8.57      20.76      28.30
C      13.99       9.54      26.15
C      12.67       9.31      26.58
C      12.72      11.22      28.02
C      14.06      11.49      27.66
C      14.68      10.63      26.72
C      12.03      12.08      28.89
C       9.99      12.68      29.98
C      10.57      13.84      30.52
C      11.93      14.10      30.24
C      12.68      13.23      29.42
C      14.03      13.48      29.09
C      14.72      12.61      28.21
C       4.21      29.37      21.99
C       5.61      29.35      21.85
C       5.54      31.11      20.23
C       4.13      31.16      20.30
C       3.48      30.28      21.20
C       6.24      32.01      19.39
C       8.34      32.86      18.63
C       7.70      33.81      17.81
C       6.29      33.84      17.79
C       5.54      32.95      18.60
C       4.12      32.99      18.66
C       3.42      32.10      19.51
C      16.37      21.92       6.05
C      17.69      22.13       6.49
C      17.59      20.24       7.95
C      16.25      19.99       7.58
C      15.65      20.84       6.62
C      18.25      19.38       8.85
C      20.27      18.77       9.97
C      19.66      17.63      10.53
C      18.30      17.38      10.24
C      17.58      18.25       9.40
C      16.22      18.02       9.05
C      15.56      18.89       8.15
C      10.53      37.78      17.77
C      11.87      37.60      18.17
C      11.80      39.60      19.48
C      10.46       0.01      19.09
C       9.83      38.91      18.23
C      12.45       0.62      20.39
C      14.37       1.10      21.72
C      13.75       2.22      22.31
C      12.44       2.54      21.88
C      11.77       1.74      20.92
C      10.44       2.01      20.50
C       9.78       1.14      19.61
C      22.46      33.52      30.58
C      23.82      33.67      30.25
C      23.78      31.68      28.92
C      22.42      31.46      29.24
C      21.76      32.40      30.07
C       0.23      30.83      28.03
C       2.20      30.35      26.77
C       1.58      29.26      26.12
C       0.25      28.95      26.49
C      23.78      29.73      27.44
C      22.43      29.48      27.79
C      21.75      30.34      28.68
C       7.71      13.62      37.65
C       6.36      13.75      38.02
C       6.47      11.76      39.33
C       7.83      11.56      38.98
C       8.44      12.51      38.14
C       5.83      10.88       0.39
C       3.90      10.35       1.69
C       4.55       9.27       2.32
C       5.87       8.98       1.91
C       6.54       9.79       0.96
C       7.89       9.56       0.57
C       8.53      10.44      39.51
C       1.96       9.30       6.46
C       0.56       9.30       6.58
C       0.62      11.04       8.21
C       2.04      11.07       8.17
C       2.70      10.19       7.28
C      24.14      11.95       9.03
C      22.04      12.85       9.74
C      22.68      13.79      10.57
C      24.09      13.79      10.62
C       0.62      12.88       9.84
C       2.04      12.90       9.81
C       2.74      12.01       8.97
C      16.36      29.37       2.33
C      17.68      29.16       1.86
C      17.57      31.08       0.44
C      16.23      31.33       0.83
C      15.64      30.46       1.78
C      18.23      31.96      39.39
C      20.23      32.59      38.25
C      19.62      33.75      37.73
C      18.26      33.99      38.05
C      17.55      33.10      38.88
C      16.20      33.33      39.25
C      15.54      32.45       0.30
C      10.31      17.75      37.59
C      11.72      17.77      37.68
C      11.66      19.67      39.12
C      10.24      19.73      39.04
C       9.58      18.75      38.27
C      12.36      20.57       0.11
C      14.44      21.23       1.09
C      13.80      22.21       1.89
C      12.41      22.37       1.74
C      11.66      21.55       0.86
C      10.26      21.65       0.73
C       9.55      20.73      39.77
C      19.82      37.62      30.58
C      18.42      37.68      30.50
C      18.52      39.56      29.03
C      19.94      39.58      29.10
C      20.58      38.59      29.88
C      17.84       0.63      28.19
C      15.79       1.34      27.21
C      16.45       2.30      26.41
C      17.85       2.42      26.54
C      18.57       1.58      27.43
C      19.98       1.64      27.55
C      20.66       0.72      28.38
C       4.20       1.99       6.27
C       5.52       2.21       6.74
C       5.45       0.28       8.15
C       4.11       0.01       7.75
C       3.50       0.88       6.82
C       6.12      39.25       9.02
C       8.14      38.65      10.16
C       7.55      37.47      10.66
C       6.21      37.20      10.33
C       5.47      38.08       9.51
C       4.12      37.83       9.15
C       3.45      38.71       8.27
C      22.60      17.76      17.66
C      23.97      17.63      17.98
C      23.91      19.63      19.29
C      22.54      19.83      18.98
C      21.90      18.87      18.16
C       0.36      20.51      20.16
C       2.33      21.05      21.39
C       1.70      22.14      22.03
C       0.36      22.42      21.67
C      23.89      21.61      20.74
C      22.53      21.83      20.40
C      21.86      20.95      19.53
H       4.16       4.66       6.06
H       2.92       1.16       4.10
H       3.33      10.25       4.45
H       4.29       6.62       2.57
H       2.38       5.07       1.43
H       2.40       6.43       7.17
H      16.27      26.70       2.47
H      15.12      30.18       4.52
H      15.11      21.09       3.87
H      16.28      24.59       5.89
H      14.45      26.20       7.08
H      14.45      25.06       1.28
H      14.09       6.87      25.96
H      15.27      10.38      23.98
H      15.04       1.29      24.44
H      13.99       4.87      22.52
H      15.88       6.44      21.35
H      15.92       5.17      27.09
H       1.88      24.79      22.30
H       3.06      21.18      24.10
H       2.85      30.29      24.03
H       1.85      26.61      25.81
H       3.78      25.00      26.88
H       3.73      26.52      21.22
H       7.92      37.37      13.28
H       8.89      35.41       9.69
H       9.15      35.80      18.78
H       7.92      34.03      15.17
H       9.97      32.88      13.62
H       9.99      38.48      14.87
H      19.90      33.89      35.09
H      20.99      35.78      38.69
H      21.15      35.56      29.58
H      19.97      37.32      33.21
H      21.98      38.38      34.79
H      21.86      32.76      33.44
H      22.36      17.52      15.02
H      21.33      15.68      18.67
H      21.13      15.69       9.56
H      22.51      14.11      13.20
H      20.49      12.94      14.81
H      20.22      18.47      13.40
H      10.23      14.00      33.15
H       9.20      15.84      29.51
H       9.00      15.69      38.62
H      10.12      17.45      34.96
H       8.11      18.47      33.36
H       8.28      12.86      34.79
H      20.68      38.76      38.25
H       0.17      36.99      37.36
H      24.01       3.14       2.48
H       3.30       1.07       1.42
H      21.66       3.53       0.95
H      19.92       0.48       0.60
H       8.60      32.52      10.05
H      12.35      34.14      11.10
H      11.92      28.25       6.02
H      15.47      30.17       7.24
H       9.52      27.92       7.46
H       7.87      31.03       7.80
H      21.73      12.65      18.27
H      18.00      14.37      17.37
H      18.45       8.42      22.38
H      14.91      10.44      21.30
H      20.79       8.05      20.85
H      22.51      11.11      20.48
H       9.50      18.81      29.94
H       5.75      17.07      30.75
H       6.30      23.05      25.78
H       2.74      21.02      26.77
H       8.62      23.40      27.35
H      10.33      20.34      27.75
H      15.65      10.81      26.43
H      12.11       8.55      26.19
H      12.36      14.96      30.61
H       9.00      12.46      30.15
H      15.09      14.33      30.40
H      16.58      12.46      28.51
H       2.46      30.32      21.30
H       6.19      28.74      22.42
H       5.80      34.54      17.23
H       9.36      32.81      18.68
H       3.31      34.68      18.45
H       1.83      32.81      20.25
H      14.69      20.67       6.33
H      18.27      22.88       6.10
H      17.85      16.55      10.63
H      21.26      18.97      10.14
H      15.13      17.23      10.37
H      13.70      19.08       8.42
H       8.85      39.04      17.97
H      12.41      36.78      17.88
H      11.95       3.33      22.31
H      15.33       0.83      21.97
H       9.93       3.83      20.40
H       7.92       0.98      19.92
H      20.77      32.29      30.29
H       0.13      34.47      30.58
H      23.99      28.18      26.01
H       3.17      30.61      26.56
H      21.88      27.67      27.81
H      20.41      29.54      29.74
H       9.43      12.42      37.89
H       5.80      14.55      37.71
H       6.38       8.22       2.37
H       2.93      10.60       1.92
H       8.46       7.77       0.53
H       9.85       9.67      38.41
H       3.72      10.22       7.20
H      24.20       8.70       5.99
H       0.35      14.49      11.20
H      21.02      12.81       9.67
H       2.87      14.58      10.04
H       4.36      12.69       8.27
H      14.68      30.63       2.08
H      18.26      28.40       2.23
H      17.81      34.84      37.69
H      21.22      32.39      38.06
H      15.10      34.16      37.96
H      13.68      32.27       0.04
H       8.56      18.74      38.22
H      12.28      17.06      37.21
H      11.92      23.05       2.34
H      15.44      21.05       1.17
H       9.53      23.39       0.86
H       7.83      20.30       0.59
H      21.60      38.56      29.94
H      17.83      36.99      30.97
H      18.36       3.08      25.95
H      14.78       1.21      27.14
H      20.77       3.35      27.37
H      22.26       1.35      29.18
H       2.54       0.70       6.51
H       6.08       2.98       6.36
H       5.77      36.33      10.67
H       9.12      38.87      10.35
H       3.04      36.95      10.42
H       1.58      38.85       8.54
H      20.90      18.97      17.95
H       0.29      16.83      17.66
H      24.10      23.18      22.14
H       3.30      20.80      21.59
H      21.96      23.63      20.36
H      20.50      21.71      18.47
N       0.21      38.63      38.59
N       1.58       0.51       0.45
N      12.38      32.52       9.84
N      13.74      30.78       8.16
N      17.97      12.74      18.62
N      16.62      11.02      20.34
N       5.75      18.70      29.50
N       4.44      20.42      27.75
N      12.08      10.14      27.47
N      10.72      11.85      29.20
N       6.22      30.21      21.00
N       7.60      32.00      19.37
N      18.25      21.29       7.40
N      19.56      19.59       9.16
N      12.45      38.50      19.00
N      13.72       0.35      20.80
N       0.20      32.77      29.44
N       1.52      31.08      27.68
N       5.80      12.83      38.84
N       4.55      11.11       0.77
N      24.17      10.16       7.43
N      22.78      11.97       9.02
N      18.23      30.01       0.96
N      19.53      31.76      39.05
N      12.33      18.70      38.44
N      13.71      20.45       0.26
N      17.83      38.62      29.72
N      16.49       0.55      28.05
N       6.08       1.37       7.63
N       7.42      39.48       9.36
N       0.34      18.55      18.78
N       1.65      20.28      20.50
O       1.82       5.11       2.23
O       1.84       6.44       6.36
O      13.89      26.20       6.27
O      13.89      25.06       2.09
O      16.45       6.43      22.15
O      16.47       5.16      26.28
O       4.35      25.04      26.07
O       4.31      26.52      22.02
O      10.53      33.69      13.54
O      10.57      37.68      14.93
O      22.52      37.57      34.83
O      22.45      33.55      33.42
O      19.90      13.73      14.85
O      19.70      17.64      13.37
O       7.56      17.65      33.32
O       7.68      13.64      34.82
O      21.66       2.72       1.51
O      20.31       1.01      39.72
O       9.56      28.73       6.92
O       8.21      30.47       8.53
O      20.79       8.86      21.41
O      22.12      10.57      19.76
O       8.63      22.59      26.78
O       9.92      20.88      28.46
O      14.68      14.59      29.55
O      16.00      12.92      27.86
O       3.41      33.87      17.90
O       2.06      32.17      19.55
O      15.55      16.94       9.53
O      14.28      18.60       7.79
O       9.75       3.08      21.01
O       8.50       1.41      19.25
O      21.74      28.45      27.22
O      20.43      30.11      28.94
O       8.61       8.54       1.11
O       9.84      10.24      39.22
O       2.75      13.77      10.58
O       4.11      12.05       8.97
O      15.53      34.43      38.80
O      14.27      32.73       0.68
O       9.55      22.58       1.43
O       8.19      20.83      39.68
O      20.71       2.53      26.83
O      22.02       0.76      28.42
O       3.47      36.71       9.57
O       2.17      38.41       7.89
O      21.83      22.86      20.96
O      20.54      21.15      19.28
