19

Cd      -1.73       9.79       8.61
Cd      -1.92      11.51      11.64
C       0.08      10.85      14.20
N      -2.17       9.85       6.37
N      -0.18      11.69      13.17
O       0.40      10.39       8.40
O      -0.09      11.87      10.07
O      -4.12       9.38       8.87
O      -3.24      11.31       9.60
O      -2.26      13.77      11.55
O      -1.16       8.77      10.54
O      -2.60       9.43      12.16
C       0.72      11.24       9.32
C      -4.26      10.55       9.35
C      -3.37      13.78      12.21
C      -1.95       8.54      11.53
C      -3.38       9.50       5.89
C      -1.34      10.58       5.59
C       0.66      12.73      12.97
