10

N       1.01       3.45       7.71
N       2.38       3.45       7.71
C       2.81       2.77       8.79
C       0.58       2.77       8.79
O       2.84       1.18      11.21
C       1.70       2.31       9.51
O       0.55       1.18      11.21
C       1.70       1.50      10.73
H       3.86       2.65       9.01
H      -0.47       2.65       9.01
