198

C       4.79      10.83      26.85
C       3.91      10.84       0.80
C       2.68      11.52       0.79
C       2.41      12.36      26.86
C       3.26      12.43      25.74
C       4.39      11.58      25.70
C       5.99      10.05      26.89
C       6.84      10.01       0.87
C       8.07       9.30       0.86
C       8.33       8.44      26.93
C       7.49       8.40      25.80
C       6.38       9.27      25.76
C      19.01      10.69       8.74
C      -6.51      11.44       9.86
C      -5.30      12.17       9.85
C      -4.44      11.99       8.75
C      -4.81      11.22       7.62
C      -6.11      10.66       7.59
C      17.74      10.03       8.78
C      17.29       9.32       9.93
C      16.05       8.61       9.91
C      15.18       8.81       8.82
C      15.56       9.56       7.69
C      16.87      10.09       7.65
C      -1.21      20.94      17.79
C      -0.78      20.17      18.91
C      -0.75      18.76      18.90
C      -1.34      18.10      17.80
C      -1.83      18.81      16.68
C      -1.66      20.22      16.64
C      -1.13      22.37      17.83
C      11.46       0.62      18.98
C      11.47       2.04      18.97
C      12.08       2.70      17.88
C      12.54       2.00      16.75
C      12.34       0.60      16.71
C       9.91       4.66      21.16
C       9.53       4.54      23.52
C       8.92       5.82      23.52
C       9.31       5.96      21.14
C       9.18       6.74      20.00
C       8.91       6.54      17.68
C       8.16       5.67      16.66
C      10.49       4.04      20.04
C       8.52       6.46      24.71
C      11.12       9.34       3.05
C      11.21       9.73       5.41
C      12.61       9.62       5.41
C      12.54       9.22       3.03
C      13.29       8.94       1.89
C      13.22       9.22      26.73
C      12.81      10.27      25.68
C      10.29       9.14       1.93
C      13.36       9.64       6.59
C      14.57       5.95      12.10
C      14.86       5.68      14.47
C      14.06       4.52      14.46
C      13.75       4.78      12.09
C      13.13       4.28      10.95
C      13.40       4.20       8.62
C      14.52       4.02       7.57
C      14.81       6.77      10.98
C      13.70       3.86      15.65
C       0.83      16.17      21.11
C       1.18      16.28      23.48
C       1.80      15.01      23.47
C       1.44      14.88      21.09
C       1.59      14.11      19.95
C       1.89      14.33      17.63
C       2.65      15.22      16.62
C       0.24      16.79      19.98
C       2.19      14.37      24.66
C      -0.35      11.44       3.00
C      -0.44      11.09       5.36
C      -1.85      11.19       5.36
C      -1.78      11.55       2.98
C      -2.53      11.80       1.83
C      -2.46      11.50      26.68
C      -2.03      10.43      25.64
C       0.47      11.64       1.87
C      -2.60      11.17       6.54
C      -3.85      14.83      12.05
C      -4.12      15.08      14.42
C      -3.33      16.25      14.42
C      -3.05      16.01      12.03
C      -2.45      16.53      10.89
C      -2.79      16.67       8.57
C      -3.93      16.89       7.57
C      -4.10      14.02      10.93
C      -2.97      16.92      15.60
H       4.10      10.22       1.60
H       1.55      12.91      26.86
H       9.18       7.87      26.94
H       5.76       9.20      24.95
H       4.82      11.30      23.87
H       6.42      10.35       2.69
H      18.83      11.59      10.65
H      -3.54      12.45       8.74
H      14.27       8.37       8.83
H      17.12      10.66       6.84
H      19.41      10.43       5.76
H      17.79       9.52      11.75
H      -0.34      20.65      19.71
H      -1.39      17.09      17.80
H      12.15       3.71      17.88
H      12.71       0.09      15.90
H      -1.63      20.72      14.81
H      11.39       0.09      20.80
H       9.63       4.01      24.39
H       9.99       6.36      17.56
H       8.71       7.59      17.47
H       8.36       4.62      16.84
H       8.48       5.93      15.65
H       7.08       5.85      16.74
H      10.57       4.59      19.19
H       8.79       6.02      25.59
H      10.69       9.90       6.27
H      12.54       8.36      26.63
H      14.24       8.88      26.51
H      11.79      10.61      25.87
H      12.86       9.84      24.68
H      13.48      11.13      25.73
H      10.73       8.81       1.07
H      12.85       9.63       7.48
H      15.27       6.04      15.33
H      13.00       5.21       8.52
H      12.60       3.48       8.40
H      15.32       4.74       7.75
H      14.12       4.19       6.57
H      14.92       3.01       7.62
H      14.30       6.56      10.13
H      13.95       4.30      16.53
H       1.05      16.80      24.34
H       0.81      14.50      17.49
H       2.11      13.28      17.42
H       2.42      16.27      16.81
H       2.34      14.97      15.60
H       3.72      15.06      16.72
H       0.19      16.24      19.13
H       1.92      14.79      25.54
H       0.08      10.94       6.23
H      -1.79      12.36      26.57
H      -3.48      11.81      26.46
H      -1.01      10.11      25.83
H      -2.09      10.85      24.64
H      -2.69       9.57      25.71
H       0.03      11.96       1.02
H      -2.09      11.20       7.43
H      -4.51      14.71      15.29
H      -2.40      15.66       8.44
H      -1.99      17.39       8.36
H      -4.74      16.17       7.75
H      -3.57      16.75       6.55
H      -4.33      17.90       7.66
H      -3.59      14.25      10.07
H      -3.21      16.47      16.49
N       7.75       7.58      24.74
N       8.97       9.48       1.87
N       2.98      13.26      24.69
N       1.79      11.32       1.81
N      14.72       9.75       6.63
N      15.76       7.74      10.92
N      -3.95      11.04       6.58
N      -5.03      13.04      10.87
N      13.12       2.63      15.69
N      10.86       2.73      19.98
N      -2.41      18.15      15.63
N      -0.14      18.09      19.92
N       9.98       4.02      22.36
N       8.84       6.46      22.32
N      10.53       9.60       4.24
N      13.21       9.37       4.21
N      15.09       6.33      13.30
N      13.55       4.13      13.27
N       0.73      16.81      22.31
N       1.90      14.38      22.27
N       0.24      11.21       4.20
N      -2.44      11.40       4.16
N      -4.36      14.44      13.25
N      -2.84      16.66      13.22
O       5.25      11.72      24.65
O       6.62      10.89       1.90
O      19.55       9.85       6.53
O      18.15       9.07      10.95
O      -2.20      20.89      15.59
O      -2.17      22.49      20.01
O       9.06       7.95      20.16
O       8.47       6.20      19.01
O      14.41       8.48       2.04
O      13.15       9.81       0.88
O      12.17       3.53      11.09
O      13.95       3.96       9.93
O       1.73      12.90      20.09
O       2.31      14.67      18.97
O      -3.66      12.25       1.97
O      -2.38      10.92       0.83
O      -1.47      17.25      11.04
O      -3.30      16.87       9.91
