72

H       2.57       1.27      10.04
H       1.54       3.14      11.39
H       4.54       5.81       9.90
H       5.62       3.93       8.66
H       2.23       6.58      10.54
H       1.29       5.62      11.70
H       2.88       8.09      13.64
H       1.57       7.83      12.49
H       4.87       7.48      11.15
H       5.89       9.05       9.46
H       2.76      11.86      10.24
H       1.80      10.33      11.99
H       3.16       4.53      13.26
H       2.17       5.71      14.15
H       0.29      10.17      18.05
H       1.33       8.29      16.71
H       2.90       5.62      18.19
H       1.82       7.50      19.44
H       5.21       4.86      17.56
H       1.57       5.82      16.40
H       4.56       3.35      14.46
H       5.87       3.60      15.61
H       2.58       3.96      16.95
H       1.55       2.38      18.64
H       4.68      -0.42      17.86
H       5.64       1.10      16.11
H       4.28       6.91      14.84
H       5.27       5.72      13.95
C       4.75       1.41       8.48
C       4.16       2.48       9.32
C       2.99       2.27      10.04
C       2.37       3.34      10.72
C       2.96       4.61      10.68
C       4.13       4.81       9.97
C       4.78       3.76       9.32
C       2.33       5.82      11.33
C       2.68       7.78      12.60
C       3.29       8.78      11.65
C       4.46       8.47      10.98
C       5.07       9.36      10.10
C       4.42      10.58       9.82
C       3.24      10.91      10.48
C       2.65      10.02      11.39
C       4.97      11.47       8.78
C       3.15       5.58      13.59
C       2.69      10.03      19.62
C       3.28       8.96      18.78
C       4.45       9.17      18.06
C       5.07       8.10      17.38
C       4.48       6.83      17.42
C       3.31       6.63      18.13
C       2.66       7.68      18.78
C       5.11       5.62      16.77
C       4.77       3.65      15.50
C       4.16       2.66      16.45
C       2.99       2.97      17.12
C       2.37       2.08      18.00
C       3.02       0.85      18.28
C       4.21       0.53      17.62
C       4.80       1.42      16.71
C       2.47      -0.03      19.32
C       4.29       5.86      14.51
N       3.17       6.41      12.37
N       4.28       5.03      15.73
O       4.10       0.31       8.34
O       5.86       1.70       7.92
O       6.07      11.10       8.25
O       4.29      12.52       8.45
O       3.34      11.13      19.76
O       1.59       9.74      20.18
O       1.37       0.33      19.85
O       3.16      -1.08      19.65
