27

N       8.69      -2.75       7.68
N       9.41      -1.65       7.34
C      11.61      -5.59       2.72
C      10.22      -5.55       2.90
C      10.17      -1.98       6.28
C       9.66      -4.80       3.93
C       9.90      -3.32       5.93
C      10.48      -4.08       4.82
C       8.96      -3.78       6.86
C      11.87      -4.10       4.61
C      12.43      -4.83       3.57
C      12.23      -6.46       1.68
C      11.06      -0.98       5.62
C       8.36      -5.13       7.06
O      11.44      -7.35       1.17
O      13.45      -6.29       1.40
H       8.07      -2.66       8.55
H       9.58      -6.11       2.22
H       8.58      -4.76       4.05
H      12.52      -3.55       5.29
H      13.50      -4.85       3.41
H      12.07      -1.38       5.47
H      10.67      -0.69       4.63
H      11.14      -0.08       6.23
H       7.43      -5.26       6.49
H       9.06      -5.91       6.74
H       8.13      -5.30       8.12
