27

H      -0.87      -2.98       5.78
H       3.35      -3.25      11.74
N      -0.61      -3.57       6.64
H       1.81      -2.72       9.86
N      -1.63      -4.23       7.26
H       0.72      -6.88       9.60
H       2.27      -7.40      11.49
H      -1.89      -5.17      10.34
H      -1.65      -6.62       9.36
H      -3.02      -5.55       9.02
H       1.65      -1.99       6.58
H       2.15      -3.59       5.96
H       2.58      -3.11       7.62
O       4.30      -4.64      13.49
O       4.23      -6.87      13.02
C       2.91      -5.36      11.72
C       2.77      -4.04      11.26
C      -1.12      -4.77       8.38
C       1.92      -3.75      10.20
C       0.25      -4.43       8.49
C       1.16      -4.76       9.59
C       0.53      -3.66       7.35
C       1.29      -6.08      10.07
C       2.16      -6.38      11.12
C       3.88      -5.67      12.83
C      -1.97      -5.57       9.32
C       1.80      -3.05       6.85
