29

C      16.27      23.17      18.66
C      15.43      22.34      19.58
C      15.93      21.10      20.02
C      15.22      20.34      20.93
C      14.01      20.84      21.44
C      13.49      22.07      21.01
C      14.21      22.81      20.08
C      12.18      18.79      21.43
C      12.67      17.53      21.09
C      11.99      16.77      20.14
C      10.82      17.26      19.54
C      10.34      18.53      19.89
C      11.02      19.31      20.83
C      10.04      16.40      18.58
S      13.08      19.83      22.55
H      16.89      20.77      19.61
H      15.59      19.37      21.27
H      12.55      22.43      21.42
H      13.83      23.78      19.73
H      13.58      17.15      21.57
H      12.34      15.78      19.86
H       9.44      18.89      19.41
H      10.67      20.30      21.09
O      17.49      22.90      18.57
O      15.70      24.15      18.05
O      12.11      20.68      23.24
O      14.02      19.00      23.31
O      10.69      15.39      18.10
O       8.84      16.69      18.34
