22

H       2.75       9.70      31.84
H       5.30      12.50      28.77
H       6.20      10.25      29.39
H       1.38      13.31      31.16
H       0.53      15.68      31.02
H       3.59      16.75      28.47
H       4.57      14.46      28.51
N       2.89      11.56      30.97
N       2.01      16.29      29.69
C       5.05       8.54      31.32
C       4.62       9.87      30.81
C       3.38      10.36      31.26
C       3.60      12.34      30.10
C       4.78      11.89      29.50
C       5.32      10.65      29.88
C       3.06      13.69      29.90
C       1.87      14.04      30.54
C       1.36      15.34      30.41
C       3.14      15.96      29.05
C       3.71      14.68      29.13
O       4.42       8.05      32.30
O       6.03       7.98      30.70
