22

H       1.50      17.04      24.79
H      -2.55      19.78      24.23
H      -1.51      19.55      26.52
H      -0.08      17.17      21.15
H      -1.00      17.23      18.83
H      -4.08      19.76      19.96
H      -3.37      19.69      22.34
C       0.76      18.16      27.12
C       0.07      18.31      25.81
C       0.65      17.71      24.67
C      -1.06      18.47      23.31
N       0.08      17.77      23.45
C      -1.10      19.04      25.66
C      -1.70      19.12      24.39
C      -1.61      18.50      21.94
C      -0.93      17.80      20.91
C      -1.48      17.80      19.63
C      -2.79      19.16      21.60
C      -3.26      19.14      20.28
N      -2.59      18.47      19.30
O       0.12      18.55      28.19
O       1.90      17.64      27.13
