27

O       3.97      11.24       2.97
O       2.10      11.46       1.79
H       3.69       9.78       4.96
H       2.64       7.90       6.30
O      -0.81       0.50       4.00
O       1.11       1.07       2.89
O       0.49       6.62       5.68
H       1.41       3.34       2.59
H      -1.08       2.36       5.93
H      -0.88       4.73       6.77
H       1.60       5.71       3.38
H       0.55       9.43       2.04
H      -0.45       7.55       3.33
C       2.18       9.72       3.43
C       2.78       9.28       4.62
C       2.21       8.24       5.36
C       1.05       7.63       4.88
C       0.44       8.05       3.70
C       1.01       9.10       2.97
C       0.35       5.35       5.12
C       1.00       4.98       3.93
C       0.89       3.67       3.49
C       0.14       2.72       4.19
C      -0.52       3.11       5.36
C      -0.41       4.42       5.83
C       0.10       1.30       3.68
C       2.79      10.85       2.69
