57

N       2.55      10.71      20.39
N       7.84       3.37      20.79
N       7.99       9.42      11.45
N       1.82       2.76      11.74
H       6.54       5.33      16.25
C       1.81       9.88      19.63
C       2.37       9.05      18.66
C       3.75       9.11      18.45
C       4.51      10.04      19.17
C       3.87      10.81      20.14
C       7.00       9.90      12.23
O       3.02       5.68      14.46
O       5.36       5.16      17.98
O       6.17       6.90      14.20
C       8.35       8.13      11.59
C       8.37       3.85      19.65
O       4.42       8.31      17.58
C       6.73       7.77      13.31
C       6.35       9.12      13.17
C       7.62       4.48      18.66
C       6.23       4.58      18.85
C       5.67       4.03      20.02
C       7.75       7.27      12.49
C       1.71       4.08      11.47
C       2.06       5.08      12.38
C       2.57       4.70      13.63
C       2.60       3.33      13.95
C       2.21       2.41      12.98
C       3.98       5.24      15.46
C       5.89       5.94      16.89
C       5.15       7.48      15.04
C       3.70       7.21      16.99
C       4.68       6.46      16.09
H       0.75       9.86      19.85
H       1.71       8.39      18.11
H       5.58      10.12      19.02
H       4.42      11.52      20.75
H       6.73      10.94      12.08
H       5.57       9.58      13.77
H       8.04       6.22      12.54
H       9.15       7.79      10.93
H       9.45       3.70      19.52
H       8.11       4.85      17.77
H       4.59       4.09      20.19
H       6.10       3.05      21.88
H       1.38       4.35      10.47
H       1.98       6.13      12.11
C       6.50       3.46      20.96
H       2.19       1.35      13.22
H       3.47       4.66      16.25
H       4.73       4.60      14.97
H       6.47       6.79      17.29
H       2.89       2.96      14.93
H       5.56       8.35      15.56
H       4.29       7.79      14.43
H       3.33       6.54      17.78
H       2.85       7.57      16.40
