16

V       4.63       2.87      24.91
O       5.02       4.23      26.31
V       1.11       3.25      24.91
O       3.87       1.66      23.52
O       1.50       1.89      26.31
O       0.35       4.46      23.52
O       2.70       3.88      24.91
C       2.62       1.34      26.73
O       6.21       2.24      24.91
C       6.14       4.77      26.74
C       2.67       1.31      23.12
C       6.19       4.81      23.12
O       1.55       1.82      23.51
O       5.06       4.30      23.51
O       3.82       1.65      26.30
O       7.34       4.47      26.30
