552

C      15.09       8.29      67.27
C      14.30       7.15      67.32
C      13.99       6.78      66.01
C      15.25       8.66      65.93
C      15.98       9.79      65.48
C      16.10      10.19      64.11
C      15.93      10.20      61.87
C      16.63      11.35      62.26
C      16.75      11.33      63.64
C      15.65       9.80      60.54
C      15.04       8.57      60.18
C      14.05       6.54      60.26
C      14.34       6.84      58.92
C      14.92       8.09      58.87
C      13.43       5.34      60.71
C      13.13       5.05      62.07
C      13.02       5.19      64.31
C      12.38       4.02      63.91
C      12.45       3.93      62.54
C      13.23       5.62      65.65
C      12.70       4.79      66.68
C      11.32       4.81      67.00
C      10.77       3.89      67.92
C      11.59       2.92      68.55
C      12.97       2.91      68.24
C      13.51       3.82      67.31
C      13.16       4.32      59.75
C      12.08       4.41      58.84
C      11.87       3.41      57.87
C      12.73       2.29      57.79
C      13.80       2.20      58.71
C      14.02       3.20      59.67
C      16.07      10.66      59.48
C      17.35      10.51      58.89
C      17.72      11.29      57.78
C      16.83      12.25      57.22
C      15.56      12.40      57.83
C      15.18      11.62      58.94
C      16.75      10.53      66.43
C      18.06      10.10      66.74
C      16.28      11.72      67.03
C      17.10      12.47      67.90
C      18.42      12.05      68.21
C      18.88      10.85      67.61
C      12.56       1.29      56.84
C      17.22      12.99      56.10
C      19.28      12.76      69.06
C      11.08       1.98      69.46
C      14.94      22.84      39.45
C      14.14      23.98      39.42
C      13.84      24.34      40.73
C      15.11      22.46      40.78
C      15.86      21.33      41.21
C      15.98      20.90      42.57
C      15.78      20.83      44.80
C      16.53      19.72      44.40
C      16.67      19.78      43.03
C      15.48      21.19      46.14
C      14.82      22.39      46.53
C      13.82      24.42      46.49
C      14.03      24.05      47.83
C      14.61      22.80      47.85
C      13.22      25.64      46.06
C      12.96      25.97      44.71
C      12.88      25.89      42.46
C      12.25      27.07      42.88
C      12.31      27.12      44.26
C      13.08      25.49      41.12
C      12.56      26.34      40.09
C      11.18      26.33      39.77
C      10.64      27.26      38.86
C      11.46      28.23      38.23
C      12.84      28.22      38.55
C      13.38      27.30      39.47
C      12.97      26.64      47.05
C      11.87      26.55      47.94
C      11.67      27.54      48.93
C      12.55      28.64      49.04
C      13.64      28.73      48.14
C      13.86      27.73      47.17
C      15.89      20.29      47.18
C      17.03      20.57      47.96
C      17.32      19.81      49.11
C      16.47      18.75      49.51
C      15.35      18.45      48.70
C      15.06      19.21      47.56
C      16.64      20.61      40.24
C      17.92      21.09      39.90
C      16.20      19.39      39.68
C      17.04      18.67      38.80
C      18.33      19.13      38.46
C      18.75      20.36      39.03
C      12.36      29.66      49.96
C      16.67      18.12      50.73
C      19.20      18.44      37.61
C      10.96      29.17      37.32
C       1.58      22.86       3.80
C       2.39      23.98       3.74
C       2.73      24.35       5.05
C       1.43      22.50       5.14
C       0.68      21.37       5.60
C       0.57      20.98       6.97
C       0.75      20.97       9.20
C       0.04      19.83       8.83
C      24.10      19.85       7.45
C       1.03      21.38      10.54
C       1.67      22.60      10.89
C       2.68      24.61      10.80
C       2.39      24.33      12.14
C       1.79      23.09      12.20
C       3.33      25.80      10.34
C       3.63      26.07       8.98
C       3.73      25.92       6.74
C       4.40      27.09       7.13
C       4.33      27.18       8.50
C       3.51      25.49       5.40
C       4.03      26.32       4.36
C       5.40      26.27       4.00
C       5.95      27.20       3.10
C       5.15      28.22       2.52
C       3.77      28.25       2.87
C       3.23      27.32       3.78
C       3.61      26.82      11.29
C       4.69      26.72      12.20
C       4.91      27.72      13.17
C       4.06      28.86      13.24
C       2.99      28.96      12.32
C       2.76      27.95      11.37
C       0.61      20.52      11.60
C      23.52      20.69      12.20
C      23.14      19.91      13.31
C      24.02      18.94      13.86
C       1.11      18.77      13.24
C       1.49      19.55      12.13
C      24.09      20.63       4.65
C      22.74      20.99       4.43
C       0.41      19.47       4.02
C      23.76      18.69       3.19
C      22.40      19.03       2.98
C      21.91      20.20       3.61
C       4.24      29.85      14.19
C      23.63      18.19      14.97
C      21.52      18.23       2.24
C       5.66      29.20       1.66
C       1.71       8.25      31.56
C       2.52       7.13      31.60
C       2.87       6.79      30.28
C       1.56       8.64      30.23
C       0.80       9.77      29.79
C       0.69      10.19      28.43
C       0.90      10.27      26.20
C       0.15      11.38      26.60
C       0.01      11.32      27.97
C       1.21       9.91      24.86
C       1.88       8.71      24.48
C       2.91       6.70      24.52
C       2.68       7.05      23.19
C       2.08       8.29      23.16
C       3.53       5.50      24.96
C       3.80       5.18      26.32
C       3.88       5.26      28.56
C       4.54       4.10      28.15
C       4.48       4.05      26.77
C       3.65       5.67      29.91
C       4.17       4.81      30.93
C       5.53       4.85      31.30
C       6.07       3.90      32.20
C       5.26       2.88      32.76
C       3.89       2.86      32.40
C       3.35       3.80      31.50
C       3.80       4.50      23.98
C       4.89       4.60      23.08
C       5.11       3.61      22.10
C       4.25       2.49      22.00
C       3.17       2.39      22.90
C       2.94       3.38      23.87
C       0.80      10.80      23.82
C      23.83      10.52      23.04
C      23.54      11.28      21.89
C       0.20      12.36      21.50
C       1.32      12.66      22.31
C       1.62      11.89      23.45
C       0.01      10.48      30.75
C      22.86      10.08      31.00
C       0.48      11.67      31.36
C      23.81      12.44      32.18
C      22.47      12.05      32.41
C      22.02      10.85      31.81
C       4.45       1.48      21.08
C      -0.01      12.99      20.28
C      21.56      12.83      33.14
C       5.76       1.89      33.62
C      16.53      14.48      54.34
C      17.29      14.12      53.20
C      17.29      14.95      52.05
C      16.55      16.15      52.02
C      15.78      16.49      53.16
C      15.77      15.67      54.30
C      18.74      13.40      50.92
C      18.74      12.56      52.07
C      19.52      13.14      49.68
C      20.95      13.71      49.76
C      19.43      11.25      52.18
C      18.56      10.09      51.67
C      12.15      30.27      52.25
C      11.43      29.89      53.41
C      11.41      30.73      54.55
C      12.21       0.75      54.56
C      12.91       1.14      53.40
C      12.94       0.30      52.26
C       9.99      29.15      55.69
C      10.03      28.30      54.54
C       9.23      28.88      56.93
C       7.79      29.41      56.85
C       9.37      26.97      54.44
C      10.27      25.84      54.98
C       0.12      16.67      16.70
C      23.55      17.02      17.86
C      23.55      16.18      19.00
C       0.11      14.97      19.01
C       0.86      14.64      17.86
C       0.87      15.47      16.73
C      22.12      17.73      20.16
C      22.12      18.58      19.02
C      21.36      17.98      21.41
C      19.92      17.42      21.33
C      21.44      19.89      18.92
C      22.33      21.05      19.44
C       4.66       0.87      18.78
C       5.36       1.26      17.62
C       5.39       0.42      16.48
C       4.59      30.39      16.47
C       3.90      30.00      17.64
C       3.87      30.83      18.77
C       6.78       2.02      15.33
C       6.75       2.86      16.48
C       7.53       2.29      14.08
C       8.98       1.77      14.15
C       7.40       4.19      16.58
C       6.49       5.32      16.05
C      19.71      14.75      70.36
C      19.28      16.09      70.49
C      19.98      17.01      71.31
C      21.16      16.54       0.60
C      21.59      15.21       0.46
C      20.87      14.36      71.08
C      18.42      18.74      70.70
C      17.71      17.81      69.90
C      18.10      20.18      70.86
C      18.95      21.07      69.93
C      16.49      18.13      69.11
C      15.20      18.02      69.97
C      19.71      16.42      36.38
C      19.28      15.08      36.26
C      20.01      14.15      35.46
C      21.16      14.55      34.74
C      21.59      15.89      34.88
C      20.88      16.81      35.68
C      18.45      12.41      36.06
C      17.72      13.34      36.85
C      18.14      10.97      35.91
C      18.97      10.10      36.88
C      16.49      13.03      37.63
C      15.22      13.13      36.76
C       9.09      30.34      36.40
C       9.61       0.47      36.21
C       8.86       1.36      35.39
C       7.66       0.94      34.76
C       7.14      30.81      34.97
C       7.88      29.93      35.79
C      10.44       3.12      35.83
C      11.18       2.24      36.67
C      10.76       4.55      35.59
C       9.98       5.47      36.56
C      12.43       2.59      37.39
C      13.68       2.40      36.51
C       9.19       0.82      70.35
C       9.51      30.68      70.54
C       8.75      29.79      71.36
C       7.57      30.15       0.55
C       7.25       0.29       0.34
C       7.98       1.23      70.95
C      10.34      28.03      70.92
C      11.08      28.91      70.09
C      10.65      26.60      71.16
C       9.89      25.68      70.18
C      12.34      28.56      69.38
C      13.59      28.75      70.27
H      19.82      10.50      67.79
H      18.44       9.25      66.31
H      16.72      13.33      68.30
H      15.34      12.06      66.81
H      15.46       8.77      68.09
H      14.03       6.67      68.18
H      14.50       7.73      64.26
H      14.39       7.69      61.92
H      17.23      12.04      64.19
H      17.03      12.06      61.65
H      18.00       9.81      59.24
H      18.64      11.14      57.36
H      14.25      11.74      59.34
H      14.88      13.08      57.47
H      15.25       8.54      58.01
H      14.16       6.26      58.10
H      11.95       3.31      64.51
H      12.06       3.16      61.98
H      11.44       5.21      58.88
H      11.08       3.51      57.22
H      14.82       3.11      60.30
H      14.45       1.40      58.67
H      14.51       3.76      67.08
H      13.59       2.22      68.66
H       9.77       3.94      68.12
H      10.70       5.48      66.54
H      12.77       0.35      57.10
H      18.17      12.96      55.81
H      20.16      12.36      69.25
H      11.72       1.50      70.05
H      19.68      20.74      38.82
H      18.28      21.96      40.31
H      16.69      17.78      38.42
H      15.28      19.02      39.92
H      15.30      22.37      38.62
H      13.87      24.47      38.56
H      14.38      23.37      42.46
H      14.30      23.37      44.80
H      17.18      19.10      42.47
H      16.96      19.01      45.00
H      17.63      21.37      47.73
H      18.12      20.08      49.69
H      14.20      19.02      47.03
H      14.69      17.71      48.98
H      14.89      22.32      48.70
H      13.80      24.59      48.66
H      11.84      27.80      42.29
H      11.93      27.88      44.83
H      11.22      25.77      47.88
H      10.87      27.46      49.56
H      14.66      27.82      46.54
H      14.30      29.51      48.19
H      14.38      27.35      39.70
H      13.48      28.91      38.13
H       9.64      27.22      38.66
H      10.55      25.66      40.23
H      12.43      30.60      49.63
H      16.97      18.67      51.50
H      20.04      18.90      37.34
H      11.61      29.66      36.74
H      20.93      20.49       3.49
H      22.34      21.81       4.89
H      -0.03      17.84       2.78
H       1.37      19.17       4.19
H       1.18      22.40       2.98
H       2.64      24.47       2.88
H       2.24      23.40       6.80
H       2.32      23.45       9.15
H      23.61      19.13       6.90
H      23.82      19.12       9.44
H      22.87      21.40      11.85
H      22.22      20.07      13.73
H       2.42      19.42      11.72
H       1.78      18.08      13.59
H       1.45      22.65      13.06
H       2.57      24.92      12.95
H       4.84      27.78       6.52
H       4.74      27.94       9.05
H       5.31      25.91      12.17
H       5.69      27.62      13.81
H       1.97      28.05      10.73
H       2.35      29.76      12.35
H       2.24      27.41       4.04
H       3.16      28.97       2.49
H       6.95      27.14       2.88
H       6.02      25.57       4.43
H       4.03      30.79      13.93
H      22.68      18.25      15.27
H      20.54      18.35       2.41
H       5.03      29.86       1.27
H      21.05      10.54      31.94
H      22.48       9.24      30.54
H      -0.01      13.31      32.57
H       1.43      12.00      31.17
H       1.31       8.70      32.39
H       2.79       6.64      32.45
H       2.36       7.77      28.55
H       2.43       7.76      26.21
H      23.67      12.00      28.53
H      23.90      12.09      26.00
H      23.24       9.71      23.26
H      22.74      11.01      21.31
H       2.47      12.09      23.98
H       1.97      13.40      22.04
H       1.80       8.77      22.30
H       2.92       6.51      22.35
H       4.97       3.39      28.74
H       4.89       3.30      26.20
H       5.53       5.40      23.14
H       5.91       3.71      21.46
H       2.14       3.29      24.50
H       2.52       1.59      22.86
H       2.37       3.73      31.23
H       3.27       2.14      32.76
H       7.07       3.95      32.42
H       6.16       5.55      30.88
H       4.40       0.54      21.40
H      23.88      12.44      19.50
H      20.59      12.70      32.97
H       5.13       1.21      33.97
H      15.19      15.94      55.10
H      15.20      17.33      53.15
H      19.01      13.61      48.83
H      19.56      12.07      49.46
H      20.92      14.80      49.91
H      21.48      13.51      48.83
H      21.50      13.26      50.58
H      19.68      11.06      53.23
H      20.37      11.27      51.63
H      18.30      10.23      50.62
H      17.63      10.02      52.25
H      19.10       9.15      51.77
H      13.50       0.59      51.46
H      13.44       2.01      53.38
H       9.73      29.36      57.78
H       9.21      27.81      57.15
H       7.79      30.49      56.70
H       7.27      29.20      57.79
H       7.24      28.94      56.04
H       9.13      26.76      53.40
H       8.42      26.97      54.99
H      10.51      25.99      56.03
H      11.19      25.78      54.40
H       9.75      24.88      54.88
H       1.45      15.21      15.93
H       1.44      13.79      17.86
H      21.87      17.50      22.25
H      21.32      19.04      21.63
H      19.94      16.34      21.16
H      19.39      17.62      22.26
H      19.36      17.89      20.51
H      21.18      20.10      17.88
H      20.50      19.88      19.48
H      22.59      20.90      20.49
H      23.25      21.12      18.85
H      21.79      21.99      19.35
H       3.32      30.54      19.57
H       3.37      29.12      17.65
H       7.03       1.81      13.24
H       7.54       3.36      13.86
H       8.99       0.69      14.31
H       9.50       1.99      13.21
H       9.53       2.25      14.97
H       7.64       4.40      17.62
H       8.34       4.20      16.03
H       6.23       5.17      15.00
H       5.56       5.37      16.63
H       7.00       6.28      16.14
H      21.22      13.40      71.02
H      22.43      14.89       0.96
H      18.30      20.41       0.47
H      17.05      20.38      70.66
H      18.77      20.81      68.88
H      20.02      20.94      70.14
H      18.70      22.12      70.08
H      16.40      17.42      68.28
H      16.56      19.12      68.67
H      15.08      17.01      70.35
H      14.33      18.26      69.36
H      15.24      18.72      70.81
H      21.22      17.77      35.73
H      22.43      16.21      34.39
H      18.35      10.66      34.89
H      17.08      10.77      36.09
H      18.76      10.37      37.92
H      20.04      10.23      36.69
H      18.72       9.05      36.73
H      16.39      13.73      38.46
H      16.57      12.03      38.07
H      15.10      14.14      36.37
H      14.34      12.88      37.37
H      15.26      12.43      35.92
H       7.54      28.97      35.92
H       6.29      30.45      34.53
H      10.50       4.81      34.57
H      11.83       4.74      35.70
H      10.25       5.25      37.60
H       8.91       5.35      36.43
H      10.24       6.51      36.35
H      12.53       1.94      38.27
H      12.38       3.61      37.76
H      13.78       1.36      36.19
H      14.58       2.67      37.08
H      13.64       3.03      35.62
H       7.65       2.19      70.82
H       6.40       0.64       0.78
H      10.38      26.27       0.76
H      11.72      26.41      71.07
H      10.18      25.91      69.14
H       8.81      25.80      70.28
H      10.14      24.64      70.38
H      12.45      29.20      68.49
H      12.30      27.53      69.01
H      13.67      29.79      70.58
H      14.48      28.48      69.70
H      13.53      28.12      71.15
N      14.56       7.72      65.22
N      15.62       9.55      63.02
N      14.48       7.61      60.96
N      13.45       5.78      63.16
N      14.43      23.38      41.50
N      15.47      21.50      43.67
N      14.30      23.38      45.76
N      13.28      25.27      43.60
N       2.15      23.41       5.84
N       1.05      21.63       8.06
N       2.23      23.54      10.10
N       3.29      25.35       7.88
N       2.28       7.74      29.51
N       1.20       9.59      27.33
N       2.41       7.73      25.25
N       3.46       5.88      27.43
N      18.02      14.55      50.97
N      18.00      12.96      53.14
N      16.39      13.72      55.43
N      16.46      16.86      50.90
N      10.68      30.32      55.62
N      10.75      28.72      53.47
N      12.23      29.42      51.21
N      12.30       1.57      55.61
N      22.83      16.58      20.09
N      22.85      18.18      17.94
N       0.26      17.44      15.62
N       0.20      14.25      20.12
N       6.10       0.84      15.40
N       6.04       2.44      17.56
N       4.57       1.72      19.82
N       4.50      29.58      15.42
N      19.53      18.29      71.35
N      18.18      16.54      69.83
N      19.02      13.92      69.56
N      21.89      17.36       1.38
N      19.56      12.87      35.42
N      18.18      14.62      36.91
N      19.00      17.25      37.17
N      21.91      13.74      33.98
N       9.31       2.63      35.25
N      10.72       0.96      36.80
N       9.71      29.45      37.19
N       7.00       1.81      33.98
N       9.22      28.45       0.07
N      10.63      30.19      69.95
N       9.83       1.70      69.56
N       6.90      29.29       1.33
