16

V       1.41      13.21       5.25
V       5.00      13.50       5.11
O       4.58      12.86       6.96
C       3.42      11.04       4.26
O       0.99      13.85       3.40
C      -0.17      15.68       6.10
O       2.20      11.50       4.51
C       3.43      12.62       7.56
C      -0.16      14.10       2.80
O      -1.39      15.21       5.85
O       2.21      12.71       7.02
O      -1.38      14.00       3.34
O       1.01      15.07       5.93
O       4.60      11.64       4.43
O       3.39      14.13       4.82
O      -0.20      12.58       5.54
