132

C       9.48      16.42       9.52
C       9.53      15.18      10.23
C       9.67      13.95       9.53
C       9.72      13.99       8.12
C       9.63      15.19       7.37
C       9.51      16.42       8.09
C       9.52      15.21      11.65
C       9.51      17.66       7.41
C       8.58      14.96       5.12
C       9.73      15.03       5.96
C       7.25      15.45       5.52
C       9.82      12.66      10.11
C       8.60      10.60      10.49
C       1.08      11.89       9.78
C       9.52      12.48       1.26
C       9.65      12.48       2.68
C       9.71      11.24       3.35
C       9.52      13.68       0.53
C       9.52      25.29      19.23
C       9.73       8.49       8.12
C       9.64       8.53       9.53
C       9.52       7.30      10.24
C       9.52       7.26      11.65
C       9.53      29.26      12.35
C       9.81      13.63       3.50
C       1.07      13.75       4.33
C       9.74       9.83      10.11
C       7.27      10.00      10.73
C       7.27      25.88      16.40
C       9.48      11.24       0.55
C       9.62      10.00       2.69
C       9.51      10.00       1.27
C       9.51       8.79       0.53
C       9.48      22.85      19.21
C       9.51      24.08      18.49
C       9.63      24.09      17.07
C       9.71      22.84      16.41
C       9.52      21.60      18.50
C       9.49       6.06       9.52
C       9.53       6.06       8.09
C       9.67       7.29       7.38
C       9.52       4.82       7.41
C       9.49      28.03      10.23
C       9.52      26.78       9.52
C       9.73      25.60      11.63
C       9.68      26.79      12.38
C       9.53      28.02      11.67
C       9.82       7.43       5.97
C       8.60       8.14       4.00
C       9.73       8.85       3.53
C       1.08       8.11       5.46
C       7.26       8.22       3.37
C       9.82      26.65      13.78
C       8.60      25.95      15.76
C       9.73      25.23      16.23
C       1.08      25.96      14.29
C       9.48      17.66      10.24
C       9.51      17.67      11.67
C       9.63      18.90      12.39
C       9.72      20.09      11.64
C       9.67      20.14      10.23
C       9.53      18.91       9.52
C       9.51      16.43      12.35
C       9.52      18.87       8.11
C       9.66      21.60      17.08
C       9.52      20.40      19.23
C       9.64      25.55      10.22
C       9.52      26.82       8.10
C       9.81      20.45      16.26
C       8.58      19.12      14.64
C       9.73      19.05      13.79
C       1.07      20.34      15.43
C       7.25      18.63      14.24
C       9.82      21.42       9.65
C       8.60      23.49       9.27
C       9.74      24.26       9.65
C       1.08      22.20       9.97
C       7.27      24.08       9.02
H       9.79      13.10       7.60
H       9.56      14.35      12.19
H       9.56      17.70       6.39
H       6.50      15.26       4.75
H       7.28      16.53       5.69
H       6.93      14.96       6.44
H       1.92      12.32       9.39
H       6.53      10.77      10.95
H       9.77      11.24       4.37
H       9.57      26.19      18.75
H       9.57      14.59       1.00
H       9.79       9.38       7.61
H       9.57      29.29      13.37
H       9.57       8.12      12.19
H       1.92      13.20       4.15
H       7.32       9.33      11.59
H       6.94       9.45       9.86
H       6.53      26.46      15.85
H       7.33      26.29      17.41
H       1.92       8.23       6.03
H       6.52       7.64       3.93
H       7.31       7.82       2.35
H       6.92       9.26       3.33
H       1.92      25.84      13.72
H       6.93      24.85      16.45
H       9.79      20.98      12.15
H       9.56      16.39      13.37
H       9.56      19.74       7.57
H       9.78      22.84      15.38
H       9.56      19.50      18.76
H       9.56       7.89       1.01
H       9.79      24.71      12.14
H       9.57      25.96       7.56
H       9.57       4.79       6.39
H       1.92      20.88      15.61
H       6.50      18.83      15.01
H       7.28      17.55      14.07
H       6.93      19.12      13.32
H       1.92      21.77      10.37
H       6.53      23.31       8.80
H       7.32      24.76       8.17
H       6.94      24.64       9.90
N       0.96      14.38       5.52
N       8.69      11.96      10.42
N       8.67      14.23       3.97
N       0.97      10.54       9.74
N       8.69       7.51       5.22
N       0.96       8.82       4.32
N       8.70      26.58      14.54
N       0.96      25.25      15.43
N       8.68      19.86      15.79
N       0.96      19.71      14.23
N       8.69      22.12       9.34
N       0.97      23.54      10.02
