22

N       7.42       3.51       3.86
N       7.39       5.81       4.65
N       9.14       5.09       3.12
N       6.86       5.32       2.33
H       9.49       3.39       4.33
H       6.05       4.32       5.26
H       7.72       4.11       5.88
H       5.52       3.81       2.95
H       6.82       3.27       1.84
H       5.50       6.06       3.76
H       9.07       3.02       2.64
H       8.45       6.53       1.72
H       8.51       4.84       1.10
H       9.01       7.00       4.03
H       9.44       5.65       5.14
H       6.77       7.22       3.22
C       7.11       4.42       5.02
C       6.58       3.93       2.68
C       8.26       5.48       1.96
C       8.80       5.96       4.30
C       8.85       3.68       3.49
C       6.56       6.18       3.49
