15

O       2.09       8.65       0.13
C      -0.61      11.35      -3.44
C      -0.76      10.10      -2.61
C      -1.77       9.20      -2.90
C      -1.05       7.74      -1.29
C      -0.03       8.61      -0.90
C       0.92       8.20       0.19
C       0.12       9.80      -1.59
H      -2.38       9.42      -3.57
N      -1.91       8.02      -2.27
O       0.54       7.40       1.07
O      -1.51      11.58      -4.27
O       0.41      12.04      -3.23
H      -1.14       6.93      -0.84
H       0.81      10.38      -1.37
