15

C       2.22       2.18       5.39
C       1.24       1.36       6.18
C       1.83       3.31       4.69
N       4.46       2.42       4.56
O       1.16       5.52       3.15
O       3.31       5.96       2.71
O       1.71       0.63       7.06
O       0.04       1.47       5.88
H       4.70       3.98       3.41
H       3.81       1.03       5.78
H       0.95       3.60       4.72
C       2.39       5.27       3.21
C       2.78       4.02       3.95
C       4.07       3.52       3.91
C       3.54       1.78       5.30
