15

O       6.22      12.34       3.99
O       8.36      12.78       4.43
O       6.77       7.45       0.09
O       5.09       8.30       1.27
C       7.44      12.09       3.94
H       9.76      10.80       3.73
C       9.12      10.34       3.23
C       7.83      10.84       3.19
C       8.60       8.60       1.84
H       8.86       7.86       1.36
C       6.89      10.13       2.45
C       7.27       9.00       1.75
C       6.29       8.18       0.96
H       6.00      10.42       2.43
N       9.51       9.24       2.59
