16

O      13.27       3.65       0.97
C      11.85       6.04       1.08
H      12.60       5.82       1.84
H       9.19       6.76      -1.67
C      12.38       3.81       0.05
C       9.94       6.54      -0.91
O      12.13       2.99      -0.90
C      10.64       5.34      -0.91
H      11.34       8.00       1.84
C      10.20       7.51       0.08
O       8.65       9.01      -0.90
C      11.60       5.08       0.08
C       9.49       8.82       0.05
H      10.45       4.58      -1.67
O       9.79       9.67       0.97
C      11.16       7.24       1.08
