74

C       9.42      14.36      14.60
C       9.02      14.66      13.26
C       8.40      13.72      12.39
C       8.17      12.43      12.93
C       8.71      12.00      14.16
C       9.31      12.99      14.97
C       9.96       0.16       0.32
C       0.44       1.43      15.08
C       1.06       2.35       0.77
C       1.18       2.00       2.13
C       0.54       0.86       2.67
C       9.96      15.13       1.74
C       0.37       0.77       4.08
C       1.35       3.69       0.38
C       8.69      10.62      14.48
C       8.15      13.93      11.01
C       9.36      14.99       6.07
C       8.84       0.97       6.72
C       8.55       0.98       8.11
C       8.72      14.99       8.90
C       9.17      13.82       8.22
C       9.45      13.82       6.85
C       7.70       3.22       7.93
C       7.95       3.21       6.54
C       7.08       4.35       8.65
C       7.64       4.30       5.59
C       9.79       8.64       0.15
C       8.71       7.73       0.29
C       8.90       6.34       0.14
C       0.19       5.79      15.11
C       1.28       6.69      15.08
C       1.09       8.08       0.03
C       6.56       5.97       0.61
C       6.37       7.37       0.79
C       5.49       4.96       0.75
C       5.10       8.04       1.13
H       9.10       0.43      12.91
H       9.70      12.68       0.68
H       7.76      11.72      12.32
H       0.44       1.67      14.09
H       1.56       2.70       2.77
H       9.45      14.34       2.12
H       9.82      12.96       6.43
H       9.38      12.97       8.75
H       6.98       4.14       9.72
H       6.09       4.56       8.25
H       7.70       5.24       8.55
H       7.20       5.17       6.07
H       6.94       3.94       4.83
H       8.56       4.61       5.09
H       9.74      14.08       4.32
H       8.61       0.67      10.72
H       1.90       8.69      15.09
H       2.22       6.36      14.87
H       5.87       3.95       0.58
H       4.70       5.16       0.01
H       5.07       5.01       1.75
H       4.28       7.34       1.26
H       4.83       8.74       0.34
H       5.23       8.59       2.07
H       0.44      10.53       0.26
H       9.54       3.93      14.75
N       8.00       2.10       8.64
N       8.50       2.08       6.01
N       9.75      14.95       4.76
N       8.51      15.01      10.26
N       7.81       5.54       0.31
N       7.46       8.17       0.62
N       9.65      10.00       0.06
N       0.35       4.43      15.00
O       0.96       1.73       4.85
O       7.89       9.82      13.72
O       7.47      12.96      10.33
O       2.29       4.33       1.12
