21

Mg       3.76      -2.17      16.70
Mg       7.76       3.25      14.39
Mg       5.92       0.42      15.54
C       6.48      -1.65      17.80
C       3.58       0.62      17.61
C       3.76      -1.62      14.29
C       8.07       0.50      13.29
C       5.04       2.60      13.48
C       7.23       3.09      16.80
O       5.33      -2.09      17.99
O       6.85      -0.86      16.89
O       3.00      -0.47      17.39
O       4.59       1.06      17.00
O       2.77      -2.16      14.83
O       4.75      -1.23      15.00
O       8.14       1.73      13.10
O       7.41      -0.09      14.20
O       5.91       3.47      13.70
O       4.91       1.50      14.09
O       7.45       4.20      16.26
O       7.15       2.03      16.09
