14

C      24.62      29.21      17.63
O      25.93      33.63      16.75
O      24.79      32.95      14.89
C      25.46      33.81      15.57
Cu      24.45      31.14      15.60
Cu      25.65      31.87      17.60
O      23.95      32.49      18.37
O      22.82      31.81      16.50
C      27.22      30.71      15.51
O      25.29      30.07      18.30
C      22.88      32.33      17.67
O      27.27      31.22      16.68
O      26.15      30.51      14.82
O      24.18      29.37      16.43
