14

O      40.78      15.85      22.36
O      39.64      17.83      22.38
Cu      39.29      17.77      24.33
Cu      40.50      15.64      24.30
O      38.79      14.71      23.97
O      37.67      16.69      23.99
C      42.06      18.00      24.70
O      42.11      16.72      24.61
O      41.00      18.71      24.66
O      39.02      17.57      26.28
C      37.73      15.42      23.90
O      40.13      15.58      26.23
C      40.30      16.90      21.80
C      39.47      16.50      26.82
