16

Nd      -0.23       7.88       7.82
P       0.77       4.33       7.23
P      -2.56       5.75       5.93
O       0.80       5.82       7.29
O       1.89       8.34       6.46
H      -0.84      10.07       9.75
O      -0.55       9.32       9.91
C      -1.39       7.80       4.43
O      -0.92       6.74       9.94
C       2.26       9.52       6.26
O      -2.08       6.36       7.21
C      -1.17       8.81      11.10
C      -1.30       7.31      11.01
O      -0.91       8.40       5.43
O       0.38      10.26       7.54
C       1.38      10.63       6.90
