16

Nd       4.76       7.24       1.24
O       3.73       9.29       0.72
P       3.77      10.79       0.65
P       7.10       9.36      -0.65
O       2.65       6.77      -0.11
C       5.93       7.31      -2.15
O       6.62       8.75       0.63
H       5.38       5.04       3.18
C       5.71       6.30       4.52
O       5.45       6.71      -1.15
O       4.16       4.85       0.96
C       2.28       5.59      -0.32
O       5.09       5.79       3.34
C       3.16       4.48       0.32
O       5.46       8.37       3.37
C       5.84       7.80       4.43
