16

Nd       0.67       2.84      11.91
O      -1.18       1.32      12.53
O      -0.01       3.36      14.31
P      -1.66       0.71      13.81
O       1.28       5.22      12.19
P       1.66      -0.71      12.51
O       0.35       4.28       9.82
H       0.06       5.03       9.98
O      -0.02       1.71       9.79
O       1.70       0.78      12.44
C      -0.27       3.78       8.63
C      -0.50       2.77      15.31
C       2.28       5.59      12.84
O       2.79       3.30      13.27
C      -0.40       2.27       8.73
C       3.16       4.48      13.48
