22

H       2.45       4.73      25.27
H       4.60       8.45      24.96
H       5.12       8.25      27.41
H       4.17       6.33      28.70
H       4.43       4.24      23.94
H       4.77       2.43      22.28
N       3.22       5.48      27.04
N       2.53       5.49      21.43
H       3.81       2.74      19.95
H       2.33       4.69      19.53
O       2.66       7.73      23.04
C       3.04       5.53      25.70
C       3.54       6.56      24.89
C       4.26       7.59      25.53
C       4.53       7.49      26.89
C       4.00       6.42      27.63
C       3.12       6.62      23.48
C       3.18       5.44      22.65
C       3.96       4.30      22.97
C       4.17       3.31      22.03
C       3.63       3.47      20.73
C       2.81       4.56      20.49
