82

Nd       9.50      -0.09       9.41
Nd       9.54       4.00      18.64
Nd       9.97       9.18       9.40
Nd       9.93       5.09       0.17
H      14.55       6.02       7.57
H       4.75       3.57       7.60
H       4.94       1.05      12.96
H      14.52       1.99      15.21
H       9.64       8.04      16.98
H      14.52       0.63      17.46
H       4.92       3.06      11.24
H      14.72       5.51      11.21
H      14.53       8.04       5.85
H       4.94       7.10       3.61
H       9.83       1.05       1.83
H       4.95       8.45       1.35
C       7.03       7.45       8.53
C      17.23       6.38      17.54
C       5.46       5.51       7.88
C       6.76       2.05      15.37
C      17.52       7.84      17.62
C       7.49       0.65      11.78
C      12.17       1.82      18.51
C       5.46       4.10       7.89
C       6.64       3.59       8.40
C       6.63       6.04       8.36
C       6.98       2.17       8.64
C       6.97       1.14      13.10
C       5.66       1.28      13.49
C      12.59       0.46      18.09
C       5.53       1.82      14.79
C       7.08       2.62      16.71
C      18.70       8.48      17.32
C      13.80       0.06      17.60
C      12.44       1.63      10.28
C       2.23       2.70       1.27
C      14.01       3.58      10.93
C      12.71       7.04       3.44
C       1.95       1.24       1.19
C      11.98       8.44       7.04
C       7.30       7.26       0.30
C      14.01       4.99      10.92
C      12.83       5.49      10.42
C      12.84       3.04      10.45
C      12.49       6.92      10.17
C      12.50       7.95       5.71
C      13.81       7.81       5.32
C       6.88       8.63       0.72
C      13.93       7.27       4.02
C      12.39       6.46       2.10
C       0.77       0.61       1.49
C       5.67       9.03       1.22
S       7.75       4.82       8.84
S       8.05       1.64      14.33
S      16.34       8.95      18.21
S      11.72       4.26       9.98
S      11.42       7.45       4.49
S       3.13       0.14       0.60
O       8.75       0.67      11.65
O      10.93       2.03      18.60
O       8.30       2.70      17.00
O       6.06       1.34       8.43
O      16.01       8.35       8.21
O       8.20       7.65       8.95
O       8.41       5.63      17.29
O       8.15       1.92       9.03
O      15.93       2.97      17.44
O      16.04       6.01      17.72
O      13.06       2.68      18.75
O       6.67       0.23      10.96
O      10.72       8.42       7.16
O       8.54       7.06       0.22
O      11.17       6.39       1.81
O      13.41       7.75      10.38
O       3.46       0.73      10.60
O      11.27       1.44       9.86
O      11.06       3.45       1.52
O      11.32       7.17       9.78
O       3.54       6.11       1.38
O       3.43       3.08       1.09
O       6.41       6.41       0.06
O      12.80       8.85       7.86
