28

H       1.92       2.17       8.94
H       5.24       4.99       8.94
H       4.99       5.24      10.93
H       2.17       1.92      10.93
C       2.67       2.80       8.46
C       2.70       2.82       7.07
C       1.80       2.01       6.16
C       4.50       4.37       8.46
C       4.46       4.34       7.07
C       5.36       5.15       6.16
C       4.37       4.50      11.40
C       4.34       4.46      12.79
C       5.15       5.36      13.70
C       2.80       2.67      11.40
C       2.82       2.70      12.79
C       2.01       1.80      13.70
C       3.58       3.58       9.19
C       3.58       3.58      10.67
N       3.58       3.58       6.41
N       3.58       3.58      13.45
O       1.00       1.20       6.75
O       1.92       2.18       4.92
O       6.16       5.96       6.75
O       5.24       4.98       4.92
O       5.96       6.16      13.11
O       4.98       5.24      14.94
O       1.20       1.00      13.11
O       2.18       1.92      14.94
