28

H       5.75       1.66      18.87
H       8.57      -1.66      18.87
H       8.82      -1.41      20.86
H       5.50       1.41      20.86
C       6.38       0.91      18.39
C       6.40       0.88      17.00
C       5.59       1.78      16.09
C       7.95      -0.91      18.39
C       7.92      -0.88      17.00
C       8.74      -1.78      16.09
C       8.08      -0.78      21.33
C       8.04      -0.76      22.73
C       8.94      -1.57      23.63
C       6.25       0.78      21.33
C       6.28       0.76      22.73
C       5.38       1.57      23.63
C       7.16       0.00      19.12
C       7.16       0.00      20.60
N       7.16       0.00      16.34
N       7.16       0.00      23.38
O       4.78       2.58      16.68
O       5.76       1.66      14.85
O       9.54      -2.58      16.68
O       8.57      -1.66      14.85
O       9.74      -2.38      23.04
O       8.82      -1.40      24.87
O       4.58       2.38      23.04
O       5.50       1.40      24.87
