14

C      11.09       9.29       6.57
C       7.60       9.29       6.57
Cu       9.35      11.51       6.63
Cu       9.35      10.09       8.64
O       7.97       9.00       7.76
C      11.09      12.30       8.70
O      10.72      10.31       5.89
C       7.60      12.30       8.70
O      10.72      12.60       7.51
O       7.97      11.28       9.37
O       7.97      12.60       7.51
O      10.72      11.28       9.37
O      10.72       9.00       7.76
O       7.97      10.31       5.89
