42

Nd       0.67       5.11      22.46
Nd       0.67       7.73      25.75
C       0.86       8.48      28.50
Nd      -3.39      11.24      26.09
C       0.21      11.03      25.92
Nd      -3.39       1.60      22.12
C      -2.72       5.07      22.22
C       0.82       4.79      26.05
C      -3.18       1.71      25.61
C       0.82       8.05      22.17
C      -3.18      -1.71      22.60
C      -5.86       0.00      24.11
C       3.38       6.42      24.11
O      -0.25       4.29      20.28
O       1.91       4.65      20.35
O       0.89       2.77      22.65
O      -1.01       1.71      22.34
O      -5.28       0.53      23.16
O      -1.60       7.55      25.52
O      -3.28       8.85      26.02
O       2.81       5.83      23.16
O      -0.25       8.55      27.94
O       1.91       8.19      27.87
O       0.89      10.07      25.56
C       0.95       4.06      18.23
O      -1.01      11.13      25.88
O      -1.60       5.29      22.69
O      -5.28      -0.53      25.06
O      -3.28       3.99      22.20
O       2.81       7.02      25.06
C       0.95       8.78      29.99
O      -2.86       0.68      26.17
O      -3.13       1.97      24.37
C       0.86       4.36      19.72
O       0.50       5.16      24.89
O       0.80       5.55      27.02
C       0.21       1.81      22.30
C      -2.72       7.77      26.00
O      -2.86      -0.68      22.04
O      -3.13      -1.97      23.85
O       0.50       7.68      23.33
O       0.80       7.30      21.20
