16

H       3.12       8.58      12.12
N       4.73       8.73      13.41
C       5.87       9.34      13.77
C       6.33      10.47      13.07
C       6.62       8.72      14.94
C       5.56      10.95      11.99
C       3.98       9.19      12.38
C       4.37      10.31      11.65
C       5.94      12.15      11.19
H       6.69       9.46      15.75
O       7.04      12.74      11.47
O       5.18      12.54      10.26
O       6.04       7.55      15.42
H       7.68       8.57      14.60
H       7.20      11.03      13.40
H       3.75      10.72      10.86
