16

C       0.96       4.83       5.98
O       1.06       9.44       1.75
O       2.06       4.24       5.70
O       0.20       4.44       6.91
H       1.71       7.52       1.42
H       2.70       8.41       2.57
H       2.22       5.96       3.77
H      -1.23       6.26       6.31
H      -1.86       8.40       5.05
N      -0.25       8.25       3.76
C       1.64       8.27       2.23
C       0.89       7.64       3.40
C       1.35       6.51       4.11
C       0.58       6.04       5.18
C      -0.61       6.68       5.52
C      -1.00       7.79       4.80
