16

H       1.23       6.14      11.17
C       4.11       2.23       8.90
C       3.35       3.34       9.60
C       3.81       3.96      10.78
C       3.05       5.01      11.32
C       1.85       5.38      10.70
C       1.46       4.74       9.54
N       2.21       3.74       9.00
C       3.46       5.74      12.55
H       0.60       5.04       8.95
H       5.16       2.59       8.76
H       4.20       1.37       9.58
O       3.52       1.83       7.71
O       4.59       5.45      13.08
O       2.71       6.66      13.00
H       4.68       3.59      11.30
