104

H       3.99       7.96       3.28
H       4.17       1.14      -3.29
H       3.26       1.26       3.42
H       3.10       7.80      -3.44
H       3.12       7.89      -1.05
H       3.26       1.18       1.04
H       4.05       1.15      -0.91
H       3.90       7.95       0.90
H       2.00       5.71       9.77
H       2.06       3.32      -9.76
H       5.67       3.47       9.60
H       5.70       5.62      -9.60
H       1.46       7.95       6.73
H       2.20       7.64       8.31
H      -0.72       7.15       7.41
H      -0.07       6.46       8.94
H       0.49       8.76       9.75
H      -1.26       8.62       9.33
H      -0.13       9.46       8.20
H       1.90       1.14      -6.53
H       2.44       1.38      -8.21
H      -0.44       1.62      -7.13
H       0.04       2.00      -8.83
H       0.85      -0.35      -9.13
H      -0.88      -0.31      -8.63
H       0.39      -0.73      -7.42
H       7.53       4.17       7.46
H       6.49       5.11       6.31
H       6.83       3.46       4.54
H       8.39       4.11       5.13
H       8.68       2.05       6.57
H       8.58       1.68       4.80
H       7.16       1.38       5.86
H       7.77       5.57      -7.39
H       6.91       4.02      -7.16
H       6.57       4.52      -4.75
H       8.30       4.48      -5.21
H       8.32       7.00      -5.32
H       7.88       6.38      -3.69
H       6.59       7.02      -4.79
C       3.87       4.55      11.31
C       3.90       4.51     -11.31
C       3.83       5.82       4.91
C       3.93       3.28      -4.91
C       3.54       3.45       4.96
C       3.48       5.62      -4.97
C       4.82       4.02       7.71
C       4.85       5.08      -7.71
C       2.77       5.34       7.78
C       2.82       3.72      -7.79
C       4.87       4.00       9.10
C       4.90       5.08      -9.10
C       2.80       5.26       9.19
C       2.85       3.80      -9.19
C       3.76       4.67       7.05
C       3.80       4.41      -7.05
C       3.62       4.60       2.82
C       3.63       4.48      -2.83
C       3.76       5.82       3.51
C       3.84       3.27      -3.51
C       3.51       3.40       3.56
C       3.46       5.67      -3.57
C       3.86       7.01       2.78
C       3.99       2.09      -2.79
C       3.38       2.19       2.88
C       3.26       6.88      -2.89
C       3.85       4.61       9.85
C       3.89       4.46      -9.85
C       3.50       5.76      -0.74
C       3.56       3.32       0.73
C       3.68       3.30      -0.69
C       3.61       5.79       0.68
C       3.60       4.51      -1.41
C       3.59       4.57       1.40
C       3.30       6.93      -1.50
C       3.41       2.15       1.49
C       3.90       2.09      -1.40
C       3.78       7.00       1.39
C       1.44       7.25       7.59
C       0.04       7.29       8.21
C      -0.22       8.62       8.91
C       1.70       1.72      -7.46
C       0.29       1.38      -7.94
C       0.16      -0.09      -8.30
C       6.82       4.09       6.61
C       7.53       3.48       5.40
C       8.02       2.06       5.68
C       6.96       5.08      -6.81
C       7.35       5.05      -5.33
C       7.55       6.45      -4.75
N       3.70       4.65       5.61
N       3.72       4.44      -5.61
O       4.98       4.54      11.95
O       2.79       4.53     -11.95
O       5.01       4.53     -11.95
O       2.76       4.54      11.95
O       4.04       6.98       5.57
O       4.23       2.14      -5.57
O       3.42       2.31       5.67
O       3.27       6.74      -5.69
O       1.72       5.95       7.10
O       1.77       3.10      -7.13
O       5.74       3.27       6.99
O       5.76       5.81      -6.98
