14

Cu      -0.00      15.40      13.07
O      -1.40      16.56      13.84
O      -1.39      17.90      12.00
Cu       0.00      16.83      11.10
O       1.40      15.67      10.33
C       1.80      14.66      11.00
O       1.39      14.33      12.17
C      -1.80      17.57      13.17
O      -1.40      15.67      10.33
O      -1.39      14.33      12.17
C       1.80      17.57      13.17
C      -1.80      14.66      11.00
O       1.40      16.56      13.84
O       1.39      17.90      12.00
