936

C       0.22       0.53       9.10
C       0.38       0.12       7.75
C       0.27       1.01       6.66
C       0.01       2.39       6.89
C      19.32       2.83       8.24
C      19.41       1.90       9.30
C       0.28      19.08      10.21
C       0.01      17.71      10.03
C       0.03      16.78      11.10
C       0.33      17.22      12.41
C       0.58      18.60      12.63
C       0.56       0.03      11.54
C      18.67       0.24      48.06
C      19.03       0.45      46.70
C      18.11       0.28      45.64
C      16.77      19.37      45.91
C      16.39      19.15      47.26
C      17.33      19.33      48.30
C       0.14       0.39      49.14
C       1.53       0.23      48.92
C       2.48       0.30      49.96
C       2.06       0.58      51.29
C       0.67       0.74      51.54
C      19.21       0.64      50.48
C      18.55       0.31      68.60
C      18.10      19.38      69.89
C      17.98       0.82      70.96
C      18.35       2.19      70.79
C      18.81       2.61      69.51
C      18.89       1.67      68.45
C      18.67      18.85      67.52
C      18.92      17.48      67.74
C      19.09      16.55      66.69
C      18.99      16.98      65.34
C      18.74      18.36      65.08
C      18.59      19.26      66.16
C       0.65      19.39      29.62
C       0.30      19.39      31.00
C       1.22      19.05      32.02
C       2.53      18.62      31.68
C       2.92      18.64      30.31
C       1.98      19.01      29.32
C      19.19       0.25      28.57
C      17.79       0.15      28.76
C      16.85       0.38      27.73
C      17.30       0.74      26.43
C      18.70       0.85      26.20
C       0.14       0.63      27.26
C       0.68       0.81      22.94
C       0.71      19.10      22.16
C       0.57       0.89      20.11
C       0.55       2.10      20.84
C       0.60       2.04      22.26
C       0.55       0.81      18.69
C      19.20      19.35      17.98
C      19.30      19.34      16.56
C       0.72       0.73      15.86
C       1.48       1.63      16.64
C       0.81       0.71      14.47
C       0.74       0.75      24.32
C      18.75       0.48      61.88
C       0.44       0.55      61.07
C      18.60       0.50      59.06
C      17.40       0.44      59.82
C      17.50       0.43      61.23
C      18.64       0.52      57.64
C       0.07      19.21      56.87
C       0.04      19.34      55.46
C      18.63       0.77      54.81
C      17.74       1.51      55.64
C      18.60       0.89      53.42
C      18.84       0.46      63.26
C       1.17      18.93      74.29
C       1.86      18.04      75.14
C       0.84      19.01      77.09
C       0.12       0.47      76.28
C       0.31       0.41      74.88
C       0.74      18.97       0.65
C       1.87      18.85       1.51
C       1.64      18.83       2.91
C       0.34      18.93       3.45
C      18.73      19.02       2.54
C       0.14      18.95       4.82
C       1.34      18.88      73.00
C       0.16       0.72      35.30
C       0.78       1.66      36.15
C      19.26       0.68      38.11
C      18.57      19.20      37.30
C      18.76      19.25      35.90
C      19.27       0.67      39.53
C      19.23       1.83      40.34
C      19.32       1.69      41.74
C       0.00       0.42      42.34
C       0.05      18.76      41.49
C       0.08       0.28      43.72
C       0.50       0.69      33.96
C      18.78       6.26       9.59
C      18.82       6.98      10.80
C      18.62       9.10       9.66
C      18.51       8.41       8.41
C      18.61       6.99       8.40
C      18.63      10.51       9.82
C      18.89      11.20      11.05
C      18.94      12.61      11.04
C      18.74      13.35       9.85
C      18.45      12.63       8.68
C      18.87      14.75       9.80
C      18.96       4.86       9.62
C      13.00      18.47      48.63
C      12.25      18.51      49.83
C      10.15      18.49      48.63
C      10.86      18.35      47.40
C      12.27      18.36      47.42
C       8.74      18.62      48.76
C       8.04      18.89      49.98
C       6.63      19.08      49.93
C       5.91      19.00      48.72
C       6.65      18.71      47.56
C       4.53      19.21      48.64
C      14.39      18.62      48.67
C       0.28       6.02      68.32
C       0.53       6.75      67.14
C       0.46       8.87      68.29
C       0.29       8.17      69.53
C       0.19       6.76      69.52
C       0.46      10.28      68.12
C       0.50      10.97      66.87
C       0.38      12.38      66.87
C       0.23      13.12      68.06
C       0.26      12.40      69.27
C       0.03      14.51      68.08
C       0.09       4.63      68.25
C       6.33      18.28      28.89
C       7.07      18.49      27.72
C       9.17      18.50      28.93
C       8.46      18.21      30.13
C       7.05      18.11      30.09
C      10.57      18.72      28.82
C      11.27      19.11      27.64
C      12.67      19.32      27.71
C      13.38      19.15      28.91
C      12.65      18.77      30.05
C      14.77      19.34      29.01
C       4.92      18.34      28.85
C       6.22       6.53       9.10
C       6.38       6.12       7.75
C       6.27       7.01       6.66
C       6.01       8.39       6.89
C       5.85       8.83       8.24
C       5.95       7.90       9.30
C       6.28       5.62      10.21
C       6.01       4.24      10.03
C       6.03       3.32      11.10
C       6.33       3.76      12.41
C       6.58       5.14      12.63
C       6.56       6.03      11.54
C       5.21       6.24      48.06
C       5.56       6.45      46.70
C       4.65       6.28      45.64
C       3.30       5.90      45.91
C       2.92       5.69      47.26
C       3.87       5.86      48.30
C       6.14       6.39      49.14
C       7.53       6.23      48.92
C       8.48       6.30      49.96
C       8.06       6.58      51.29
C       6.67       6.74      51.54
C       5.74       6.64      50.48
C       5.08       6.31      68.60
C       4.63       5.91      69.89
C       4.52       6.82      70.96
C       4.89       8.19      70.79
C       5.35       8.61      69.51
C       5.42       7.67      68.45
C       5.21       5.39      67.52
C       5.45       4.01      67.74
C       5.63       3.08      66.69
C       5.52       3.52      65.34
C       5.28       4.89      65.08
C       5.13       5.79      66.16
C       6.65       5.92      29.62
C       6.30       5.93      31.00
C       7.22       5.58      32.02
C       8.53       5.16      31.68
C       8.92       5.17      30.31
C       7.98       5.54      29.32
C       5.72       6.25      28.57
C       4.33       6.15      28.76
C       3.39       6.38      27.73
C       3.84       6.74      26.43
C       5.24       6.85      26.20
C       6.14       6.63      27.26
C       6.68       6.81      22.94
C       6.71       5.64      22.16
C       6.57       6.89      20.11
C       6.55       8.10      20.84
C       6.60       8.04      22.26
C       6.55       6.81      18.69
C       5.74       5.89      17.98
C       5.83       5.87      16.56
C       6.72       6.73      15.86
C       7.48       7.63      16.64
C       6.81       6.71      14.47
C       6.74       6.75      24.32
C       5.29       6.48      61.88
C       6.44       6.55      61.07
C       5.14       6.50      59.06
C       3.94       6.44      59.82
C       4.04       6.43      61.23
C       5.17       6.52      57.64
C       6.07       5.74      56.87
C       6.04       5.87      55.46
C       5.16       6.77      54.81
C       4.28       7.51      55.64
C       5.13       6.89      53.42
C       5.37       6.46      63.26
C       7.17       5.46      74.29
C       7.86       4.57      75.14
C       6.84       5.55      77.09
C       6.12       6.47      76.28
C       6.31       6.41      74.88
C       6.74       5.51       0.65
C       7.87       5.39       1.51
C       7.64       5.37       2.91
C       6.34       5.46       3.45
C       5.26       5.56       2.54
C       6.14       5.48       4.82
C       7.34       5.42      73.00
C       6.16       6.72      35.30
C       6.78       7.66      36.15
C       5.80       6.69      38.11
C       5.11       5.74      37.30
C       5.29       5.78      35.90
C       5.80       6.67      39.53
C       5.76       7.83      40.34
C       5.86       7.69      41.74
C       6.00       6.42      42.34
C       6.05       5.29      41.49
C       6.08       6.28      43.72
C       6.50       6.69      33.96
C       5.32      12.26       9.59
C       5.36      12.98      10.80
C       5.16      15.10       9.66
C       5.05      14.41       8.41
C       5.14      12.99       8.40
C       5.17      16.51       9.82
C       5.42      17.20      11.05
C       5.47      18.61      11.04
C       5.27      19.35       9.85
C       4.98      18.63       8.68
C       5.40       1.28       9.80
C       5.49      10.86       9.62
C      19.00       5.01      48.63
C      18.25       5.04      49.83
C      16.15       5.02      48.63
C      16.86       4.89      47.40
C      18.27       4.89      47.42
C      14.74       5.16      48.76
C      14.04       5.42      49.98
C      12.63       5.61      49.93
C      11.91       5.54      48.72
C      12.65       5.24      47.56
C      10.53       5.75      48.64
C       0.93       5.16      48.67
C       6.28      12.02      68.32
C       6.53      12.75      67.14
C       6.46      14.87      68.29
C       6.29      14.17      69.53
C       6.19      12.76      69.52
C       6.46      16.28      68.12
C       6.50      16.97      66.87
C       6.38      18.38      66.87
C       6.23      19.12      68.06
C       6.26      18.40      69.27
C       6.03       1.05      68.08
C       6.09      10.63      68.25
C      12.33       4.81      28.89
C      13.07       5.02      27.72
C      15.17       5.04      28.93
C      14.46       4.74      30.13
C      13.05       4.64      30.09
C      16.57       5.26      28.82
C      17.27       5.64      27.64
C      18.67       5.85      27.71
C      19.38       5.69      28.91
C      18.65       5.31      30.05
C       1.31       5.87      29.01
C      10.92       4.88      28.85
C      12.22      12.53       9.10
C      12.38      12.12       7.75
C      12.27      13.01       6.66
C      12.01      14.39       6.89
C      11.85      14.83       8.24
C      11.95      13.90       9.30
C      12.28      11.62      10.21
C      12.01      10.24      10.03
C      12.03       9.32      11.10
C      12.33       9.76      12.41
C      12.58      11.14      12.63
C      12.56      12.03      11.54
C      11.21      12.24      48.06
C      11.56      12.45      46.70
C      10.65      12.28      45.64
C       9.30      11.90      45.91
C       8.92      11.69      47.26
C       9.87      11.86      48.30
C      12.14      12.39      49.14
C      13.53      12.23      48.92
C      14.48      12.30      49.96
C      14.06      12.58      51.29
C      12.67      12.74      51.54
C      11.74      12.64      50.48
C      11.08      12.31      68.60
C      10.63      11.91      69.89
C      10.52      12.82      70.96
C      10.89      14.19      70.79
C      11.35      14.61      69.51
C      11.42      13.67      68.45
C      11.21      11.39      67.52
C      11.45      10.01      67.74
C      11.63       9.08      66.69
C      11.52       9.52      65.34
C      11.28      10.89      65.08
C      11.13      11.79      66.16
C      12.65      11.92      29.62
C      12.30      11.93      31.00
C      13.22      11.58      32.02
C      14.53      11.16      31.68
C      14.92      11.17      30.31
C      13.98      11.54      29.32
C      11.72      12.25      28.57
C      10.33      12.15      28.76
C       9.39      12.38      27.73
C       9.84      12.74      26.43
C      11.24      12.85      26.20
C      12.14      12.63      27.26
C      12.68      12.81      22.94
C      12.71      11.64      22.16
C      12.57      12.89      20.11
C      12.55      14.10      20.84
C      12.60      14.04      22.26
C      12.55      12.81      18.69
C      11.74      11.89      17.98
C      11.83      11.87      16.56
C      12.72      12.73      15.86
C      13.48      13.63      16.64
C      12.81      12.71      14.47
C      12.74      12.75      24.32
C      11.29      12.48      61.88
C      12.44      12.55      61.07
C      11.14      12.50      59.06
C       9.94      12.44      59.82
C      10.04      12.43      61.23
C      11.17      12.52      57.64
C      12.07      11.74      56.87
C      12.04      11.87      55.46
C      11.16      12.77      54.81
C      10.28      13.51      55.64
C      11.13      12.89      53.42
C      11.37      12.46      63.26
C      13.17      11.46      74.29
C      13.86      10.57      75.14
C      12.84      11.55      77.09
C      12.12      12.47      76.28
C      12.31      12.41      74.88
C      12.74      11.51       0.65
C      13.87      11.39       1.51
C      13.64      11.37       2.91
C      12.34      11.46       3.45
C      11.26      11.56       2.54
C      12.14      11.48       4.82
C      13.34      11.42      73.00
C      12.16      12.72      35.30
C      12.78      13.66      36.15
C      11.80      12.69      38.11
C      11.11      11.74      37.30
C      11.29      11.78      35.90
C      11.80      12.67      39.53
C      11.76      13.83      40.34
C      11.86      13.69      41.74
C      12.00      12.42      42.34
C      12.05      11.29      41.49
C      12.08      12.28      43.72
C      12.50      12.69      33.96
C      11.32      18.26       9.59
C      11.36      18.98      10.80
C      11.16       1.63       9.66
C      11.05       0.94       8.41
C      11.14      18.99       8.40
C      11.17       3.04       9.82
C      11.42       3.73      11.05
C      11.47       5.15      11.04
C      11.27       5.89       9.85
C      10.98       5.16       8.68
C      11.40       7.28       9.80
C      11.49      16.86       9.62
C       5.53      11.01      48.63
C       4.79      11.04      49.83
C       2.68      11.02      48.63
C       3.39      10.89      47.40
C       4.81      10.89      47.42
C       1.27      11.16      48.76
C       0.57      11.42      49.98
C      18.63      11.61      49.93
C      17.91      11.54      48.72
C      18.65      11.24      47.56
C      16.53      11.75      48.64
C       6.93      11.16      48.67
C      12.28      18.02      68.32
C      12.53      18.75      67.14
C      12.46       1.40      68.29
C      12.29       0.71      69.53
C      12.19      18.76      69.52
C      12.46       2.81      68.12
C      12.50       3.51      66.87
C      12.38       4.92      66.87
C      12.23       5.66      68.06
C      12.26       4.93      69.27
C      12.03       7.05      68.08
C      12.09      16.63      68.25
C      18.33      10.81      28.89
C      19.07      11.02      27.72
C       1.70      11.04      28.93
C       1.00      10.74      30.13
C      19.05      10.64      30.09
C       3.10      11.26      28.82
C       3.80      11.64      27.64
C       5.20      11.85      27.71
C       5.92      11.69      28.91
C       5.18      11.31      30.05
C       7.31      11.87      29.01
C      16.92      10.88      28.85
H       0.66      18.62       7.54
H       0.80       1.01      11.72
H       0.20      15.38      13.33
H       0.58      16.61      14.36
H      19.20       4.21       5.99
H       0.02       2.98       4.93
H      19.20       2.22      10.23
H      19.19      17.38       9.12
H       0.49       0.80      46.46
H      18.23       0.82      50.69
H       3.92       0.57      52.16
H       2.70       0.87      53.22
H      14.95      18.95      45.06
H      16.11      19.34      43.97
H      17.05      19.09      49.25
H       1.86      19.42      48.00
H      17.77      18.42      70.04
H      18.33       0.76      65.94
H      19.30      15.15      64.46
H      19.07      16.37      63.38
H      18.50       4.00      71.74
H      17.93       2.79      72.70
H      19.29       1.98      67.57
H      19.07      17.16      68.70
H      18.84       0.24      31.29
H       1.13       0.81      27.08
H      15.45       0.91      25.55
H      16.70       1.22      24.52
H       4.30      17.90      32.43
H       3.15      18.17      33.58
H       2.27      18.92      28.35
H      17.44      19.27      29.65
H       0.58       2.92      22.80
H      18.70      18.69      16.04
H       2.13       2.29      16.20
H       0.77      18.18      22.59
H       1.35       1.41      14.03
H       1.24      19.45      24.72
H      16.64       0.37      61.79
H       0.67      18.76      54.90
H      17.07       2.17      55.24
H       1.38       0.59      61.48
H      17.86       1.41      53.02
H       0.10       1.02      63.66
H      19.27       1.08      74.28
H       2.45      18.77       3.54
H      17.76      19.10       2.87
H       2.50      17.33      74.78
H      18.79      18.48       5.15
H       1.46      18.85      72.09
H      18.29      18.55      35.31
H      19.28       2.52      42.34
H       0.15      17.81      41.86
H       1.44       2.36      35.78
H       0.65      19.01      44.07
H       1.43       0.41      33.79
H      18.56       6.50       7.51
H      19.15      13.10      11.91
H      18.29      13.09       7.78
H      18.95       6.52      11.70
H      18.74      15.21       8.90
H      19.08       4.41      10.52
H      12.78      18.31      46.54
H       6.14      19.29      50.80
H       6.20      18.63      46.64
H      12.70      18.60      50.74
H       4.07      19.14      47.73
H      14.85      18.73      49.58
H       0.03       6.27      70.40
H       0.38      12.87      65.97
H       0.15      12.86      70.18
H       0.60       6.28      66.23
H      19.38      14.97      68.99
H       0.17       4.17      67.34
H       6.55      17.94      30.96
H      13.16       0.13      26.86
H      13.10      18.63      30.96
H       6.62      18.63      26.81
H      15.23      19.18      29.91
H       4.46      18.54      27.96
H       6.66       5.15       7.54
H       6.80       7.01      11.72
H       6.20       1.92      13.33
H       6.58       3.14      14.36
H       5.74      10.21       5.99
H       6.02       8.98       4.93
H       5.73       8.22      10.23
H       5.73       3.91       9.12
H       6.49       6.80      46.46
H       4.76       6.82      50.69
H       9.92       6.57      52.16
H       8.70       6.87      53.22
H       1.48       5.48      45.06
H       2.65       5.88      43.97
H       3.58       5.63      49.25
H       7.86       5.95      48.00
H       4.30       4.95      70.04
H       4.87       6.76      65.94
H       5.84       1.69      64.46
H       5.61       2.91      63.38
H       5.03      10.00      71.74
H       4.47       8.79      72.70
H       5.82       7.98      67.57
H       5.60       3.70      68.70
H       5.38       6.24      31.29
H       7.13       6.81      27.08
H       1.99       6.91      25.55
H       3.24       7.22      24.52
H      10.30       4.44      32.43
H       9.15       4.70      33.58
H       8.27       5.45      28.35
H       3.98       5.80      29.65
H       6.58       8.92      22.80
H       5.24       5.22      16.04
H       8.13       8.29      16.20
H       6.77       4.71      22.59
H       7.35       7.41      14.03
H       7.24       5.99      24.72
H       3.18       6.37      61.79
H       6.67       5.29      54.90
H       3.61       8.17      55.24
H       7.38       6.59      61.48
H       4.39       7.41      53.02
H       6.10       7.02      63.66
H       5.81       7.08      74.28
H       8.45       5.30       3.54
H       4.30       5.63       2.87
H       8.50       3.87      74.78
H       5.33       5.02       5.15
H       7.46       5.38      72.09
H       4.82       5.08      35.31
H       5.82       8.52      42.34
H       6.15       4.35      41.86
H       7.44       8.36      35.78
H       6.65       5.54      44.07
H       7.43       6.41      33.79
H       5.10      12.50       7.51
H       5.69      19.10      11.91
H       4.83      19.09       7.78
H       5.49      12.52      11.70
H       5.28       1.75       8.90
H       5.62      10.41      10.52
H      18.78       4.84      46.54
H      12.14       5.82      50.80
H      12.20       5.17      46.64
H      18.70       5.14      50.74
H      10.07       5.68      47.73
H       1.39       5.27      49.58
H       6.03      12.27      70.40
H       6.38      18.87      65.97
H       6.15      18.86      70.18
H       6.60      12.28      66.23
H       5.92       1.51      68.99
H       6.17      10.17      67.34
H      12.55       4.47      30.96
H      19.16       6.13      26.86
H      19.10       5.17      30.96
H      12.62       5.17      26.81
H       1.76       5.72      29.91
H      10.46       5.07      27.96
H      12.66      11.15       7.54
H      12.80      13.01      11.72
H      12.20       7.92      13.33
H      12.58       9.14      14.36
H      11.74      16.21       5.99
H      12.02      14.98       4.93
H      11.73      14.22      10.23
H      11.73       9.91       9.12
H      12.49      12.80      46.46
H      10.76      12.82      50.69
H      15.92      12.57      52.16
H      14.70      12.87      53.22
H       7.48      11.48      45.06
H       8.65      11.88      43.97
H       9.58      11.63      49.25
H      13.86      11.95      48.00
H      10.30      10.95      70.04
H      10.87      12.76      65.94
H      11.84       7.69      64.46
H      11.61       8.91      63.38
H      11.03      16.00      71.74
H      10.47      14.79      72.70
H      11.82      13.98      67.57
H      11.60       9.70      68.70
H      11.38      12.24      31.29
H      13.13      12.81      27.08
H       7.99      12.91      25.55
H       9.24      13.22      24.52
H      16.30      10.44      32.43
H      15.15      10.70      33.58
H      14.27      11.45      28.35
H       9.98      11.80      29.65
H      12.58      14.92      22.80
H      11.24      11.22      16.04
H      14.13      14.29      16.20
H      12.77      10.71      22.59
H      13.35      13.41      14.03
H      13.24      11.99      24.72
H       9.18      12.37      61.79
H      12.67      11.29      54.90
H       9.61      14.17      55.24
H      13.38      12.59      61.48
H      10.39      13.41      53.02
H      12.10      13.02      63.66
H      11.81      13.08      74.28
H      14.45      11.30       3.54
H      10.30      11.63       2.87
H      14.50       9.87      74.78
H      11.33      11.02       5.15
H      13.46      11.38      72.09
H      10.82      11.08      35.31
H      11.82      14.52      42.34
H      12.15      10.35      41.86
H      13.44      14.36      35.78
H      12.65      11.54      44.07
H      13.43      12.41      33.79
H      11.10      18.50       7.51
H      11.69       5.63      11.91
H      10.83       5.63       7.78
H      11.49      18.52      11.70
H      11.28       7.75       8.90
H      11.62      16.41      10.52
H       5.31      10.84      46.54
H      18.14      11.82      50.80
H      18.20      11.17      46.64
H       5.24      11.14      50.74
H      16.07      11.68      47.73
H       7.39      11.27      49.58
H      12.03      18.27      70.40
H      12.38       5.41      65.97
H      12.15       5.40      70.18
H      12.60      18.28      66.23
H      11.92       7.51      68.99
H      12.17      16.17      67.34
H      18.55      10.47      30.96
H       5.70      12.13      26.86
H       5.63      11.17      30.96
H      18.62      11.17      26.81
H       7.76      11.72      29.91
H      16.46      11.07      27.96
N      19.38       3.27       5.85
N       0.36      16.33      13.45
N       0.78      19.02      13.88
N      19.22      15.47      10.88
N      19.09       4.14       8.48
N       0.47       0.58       5.41
N      15.87      19.21      44.90
N       2.97       0.67      52.31
N       0.27       0.91      52.81
N       3.80       0.06      49.73
N      15.10      18.84      47.54
N      18.47       0.54      44.38
N      18.25       3.06      71.83
N      19.13      16.10      64.31
N      18.62      18.78      63.82
N      19.35      15.24      66.95
N      19.15       3.91      69.33
N      17.53       0.39      72.05
N       3.41      18.22      32.64
N      16.41       0.97      25.42
N      19.14       1.13      24.97
N      15.52       0.21      27.94
N       4.21      18.38      29.99
N       0.81      19.05      33.37
N       0.65      19.18      20.81
N       1.37       1.63      17.99
N      18.30      18.51      18.66
N       0.43       3.34      20.16
N       0.32       0.56      59.72
N      17.79       1.36      56.98
N       0.94      18.29      57.50
N      16.15       0.35      59.16
N       1.67      18.12      76.48
N      18.97      19.05       1.21
N       3.18      18.81       0.98
N      18.75       1.44      76.87
N       0.60       1.59      37.49
N      19.42      18.93      40.15
N      19.06       3.11      39.74
N      17.71      18.26      37.91
N      18.76       8.33      10.77
N      18.42      11.28       8.72
N      19.15      10.51      12.26
N      18.36       9.09       7.18
N      10.90      18.54      49.76
N       7.98      18.55      47.63
N       8.71      19.01      51.22
N      10.19      18.26      46.15
N       0.58       8.09      67.18
N       0.35      11.05      69.24
N       0.63      10.29      65.64
N       0.18       8.86      70.77
N       8.42      18.61      27.79
N      11.32      18.58      29.95
N      10.60      19.31      26.41
N       9.12      18.06      31.38
N       5.92       9.27       5.85
N       6.36       2.87      13.45
N       6.78       5.56      13.88
N       5.75       2.01      10.88
N       5.62      10.14       8.48
N       6.47       6.58       5.41
N       2.40       5.75      44.90
N       8.97       6.67      52.31
N       6.27       6.91      52.81
N       9.80       6.06      49.73
N       1.63       5.37      47.54
N       5.00       6.54      44.38
N       4.79       9.06      71.83
N       5.67       2.63      64.31
N       5.15       5.31      63.82
N       5.88       1.77      66.95
N       5.68       9.91      69.33
N       4.07       6.39      72.05
N       9.41       4.75      32.64
N       2.95       6.97      25.42
N       5.68       7.13      24.97
N       2.06       6.21      27.94
N      10.21       4.91      29.99
N       6.81       5.58      33.37
N       6.65       5.72      20.81
N       7.37       7.63      17.99
N       4.84       5.04      18.66
N       6.43       9.34      20.16
N       6.32       6.56      59.72
N       4.32       7.36      56.98
N       6.94       4.82      57.50
N       2.69       6.35      59.16
N       7.67       4.65      76.48
N       5.50       5.58       1.21
N       9.18       5.34       0.98
N       5.28       7.44      76.87
N       6.60       7.59      37.49
N       5.95       5.46      40.15
N       5.59       9.11      39.74
N       4.24       4.79      37.91
N       5.29      14.33      10.77
N       4.96      17.28       8.72
N       5.68      16.51      12.26
N       4.89      15.09       7.18
N      16.90       5.08      49.76
N      13.98       5.08      47.63
N      14.71       5.55      51.22
N      16.19       4.79      46.15
N       6.58      14.09      67.18
N       6.35      17.05      69.24
N       6.63      16.29      65.64
N       6.18      14.86      70.77
N      14.42       5.14      27.79
N      17.32       5.12      29.95
N      16.60       5.85      26.41
N      15.12       4.59      31.38
N      11.92      15.27       5.85
N      12.36       8.87      13.45
N      12.78      11.56      13.88
N      11.75       8.01      10.88
N      11.62      16.14       8.48
N      12.47      12.58       5.41
N       8.40      11.75      44.90
N      14.97      12.67      52.31
N      12.27      12.91      52.81
N      15.80      12.06      49.73
N       7.63      11.37      47.54
N      11.00      12.54      44.38
N      10.79      15.06      71.83
N      11.67       8.63      64.31
N      11.15      11.31      63.82
N      11.88       7.77      66.95
N      11.68      15.91      69.33
N      10.07      12.39      72.05
N      15.41      10.75      32.64
N       8.95      12.97      25.42
N      11.68      13.13      24.97
N       8.06      12.21      27.94
N      16.21      10.91      29.99
N      12.81      11.58      33.37
N      12.65      11.72      20.81
N      13.37      13.63      17.99
N      10.84      11.04      18.66
N      12.43      15.34      20.16
N      12.32      12.56      59.72
N      10.32      13.36      56.98
N      12.94      10.82      57.50
N       8.69      12.35      59.16
N      13.67      10.65      76.48
N      11.50      11.58       1.21
N      15.18      11.34       0.98
N      11.28      13.44      76.87
N      12.60      13.59      37.49
N      11.95      11.46      40.15
N      11.59      15.11      39.74
N      10.24      10.79      37.91
N      11.29       0.86      10.77
N      10.96       3.81       8.72
N      11.68       3.04      12.26
N      10.89       1.63       7.18
N       3.44      11.08      49.76
N       0.52      11.08      47.63
N       1.24      11.55      51.22
N       2.73      10.79      46.15
N      12.58       0.63      67.18
N      12.35       3.59      69.24
N      12.63       2.82      65.64
N      12.18       1.39      70.77
N       0.95      11.14      27.79
N       3.85      11.12      29.95
N       3.13      11.85      26.41
N       1.66      10.59      31.38
O      18.56      17.30      18.45
O       1.41       4.09      20.40
O      18.85       3.94      20.48
O      17.11      18.73      18.32
O       2.15      18.55      57.26
O      15.41       1.32      59.47
O      15.56      18.75      59.45
O       0.71      17.11      57.14
O       3.77      17.75       1.30
O      17.56       1.32      76.47
O      19.14       2.60      76.62
O       3.86       0.32       1.36
O       0.56       3.87      40.00
O      18.08      17.08      37.67
O      16.53      18.39      37.50
O      18.00       3.66      40.13
O      18.31      10.80      13.16
O      17.29       8.77       6.60
O      19.32       8.89       6.40
O       0.84      10.74      12.69
O       8.31      18.16      52.06
O      10.45      17.18      45.56
O      10.47      19.22      45.39
O       8.58       0.70      51.72
O       1.66      10.63      65.02
O       1.10       8.53      71.56
O      18.54       8.66      71.32
O      19.09      10.46      64.90
O      11.02      18.54      25.51
O       8.94      16.92      31.88
O       8.76      18.93      32.21
O      10.70       1.03      26.00
O       5.09       3.83      18.45
O       7.41      10.09      20.40
O       5.38       9.94      20.48
O       3.65       5.27      18.32
O       8.15       5.09      57.26
O       1.94       7.32      59.47
O       2.09       5.28      59.45
O       6.71       3.64      57.14
O       9.77       4.28       1.30
O       4.10       7.32      76.47
O       5.68       8.60      76.62
O       9.86       6.32       1.36
O       6.56       9.87      40.00
O       4.62       3.62      37.67
O       3.06       4.93      37.50
O       4.53       9.66      40.13
O       4.85      16.80      13.16
O       3.82      14.77       6.60
O       5.86      14.89       6.40
O       6.84      16.74      12.69
O      14.31       4.70      52.06
O      16.45       3.71      45.56
O      16.47       5.75      45.39
O      14.58       6.70      51.72
O       7.66      16.63      65.02
O       7.10      14.53      71.56
O       5.07      14.66      71.32
O       5.63      16.46      64.90
O      17.02       5.07      25.51
O      14.94       3.45      31.88
O      14.76       5.47      32.21
O      16.70       7.03      26.00
O      11.09       9.83      18.45
O      13.41      16.09      20.40
O      11.38      15.94      20.48
O       9.65      11.27      18.32
O      14.15      11.09      57.26
O       7.94      13.32      59.47
O       8.09      11.28      59.45
O      12.71       9.64      57.14
O      15.77      10.28       1.30
O      10.10      13.32      76.47
O      11.68      14.60      76.62
O      15.86      12.32       1.36
O      12.56      15.87      40.00
O      10.62       9.62      37.67
O       9.06      10.93      37.50
O      10.53      15.66      40.13
O      10.85       3.33      13.16
O       9.82       1.31       6.60
O      11.86       1.43       6.40
O      12.84       3.27      12.69
O       0.85      10.70      52.06
O       2.99       9.71      45.56
O       3.00      11.75      45.39
O       1.11      12.70      51.72
O      13.66       3.16      65.02
O      13.10       1.07      71.56
O      11.07       1.20      71.32
O      11.63       3.00      64.90
O       3.55      11.07      25.51
O       1.47       9.45      31.88
O       1.30      11.47      32.21
O       3.24      13.03      26.00
