10

N      -1.80      10.11      14.67
C       1.76      13.08      14.71
C       2.51       9.50      13.87
C      -0.22      13.33      13.86
N       0.52      12.49      14.66
C       1.30       7.91      14.72
N       1.41       9.28      14.67
C      -2.17       9.02      13.92
Zn       0.05      10.63      14.88
C      -2.94      10.89      14.71
