10

C      -0.21      13.35      22.25
N      -1.80      10.11      21.44
C       1.29       7.92      21.36
Zn       0.05      10.64      21.24
N       1.41       9.29      21.41
C       2.51       9.50      22.21
C       1.77      13.09      21.39
C      -2.93      10.89      21.40
N       0.53      12.49      21.47
C      -2.16       9.03      22.20
