104

Ce       1.63       1.84      20.79
Ce       1.02       8.24      11.39
Ce       2.03      10.96       0.67
Ce       2.64       4.56      10.06
P       4.98       0.32       1.80
P      -0.30       6.72       8.92
P      -1.31      12.48      19.65
P       3.97       6.08      12.53
H       3.83      12.54       3.75
H       3.48       1.21       3.36
H       3.67       1.47       5.86
H       4.24       0.02       5.98
H       0.46       0.79       7.05
H       4.90       1.34       7.82
H      -0.58       3.43       6.78
H       1.08       3.85       5.26
H       1.61       2.39       5.40
H       0.32       2.55       3.45
H       4.79       3.07       4.28
H       0.85       6.14       6.98
H       1.20       7.61       7.37
H       1.01       7.87       4.87
H       0.44       6.42       4.75
H       4.22       7.19       3.68
H      -0.22       7.74       2.90
H       5.26       9.83       3.95
H       3.60      10.25       5.46
H       3.06       8.79       5.33
H       4.35       8.95       7.27
H      -0.11       9.47       6.44
H      -0.16       0.26      17.70
H       0.18      11.59      18.10
H      -0.01      11.33      15.60
H      -0.58      12.78      15.47
H       3.21      12.01      14.40
H      -1.23      11.46      13.63
H       4.25       9.37      14.67
H       2.59       8.95      16.19
H       2.05      10.41      16.05
H       3.34      10.25      18.00
H      -1.12       9.73      17.17
H       2.81       6.66      14.48
H       2.47       5.19      14.08
H       2.66       4.93      16.59
H       3.23       6.38      16.71
H      -0.55       5.61      17.78
H       3.89       5.06      18.55
H      -1.60       2.97      17.51
H       0.07       2.55      15.99
H       0.60       4.01      16.13
H      -0.69       3.85      14.18
H       3.77       3.33      15.01
C       4.21       0.58       3.46
C       4.48       0.94       5.84
C      -0.30       1.39       6.99
C       0.20       2.84       6.78
C       0.81       2.93       5.43
C      -0.13       2.48       4.31
C       1.09       3.29       7.87
C       0.47       6.98       7.27
C       0.19       7.34       4.88
C       4.98       7.79       3.74
C       4.48       9.24       3.95
C       3.86       9.33       5.30
C       4.81       8.88       6.42
C       3.58       9.69       2.85
C      -0.54      12.22      18.00
C      -0.82      11.86      15.61
C       3.97      11.41      14.47
C       3.46       9.96      14.68
C       2.85       9.87      16.03
C       3.79      10.32      17.15
C       2.57       9.51      13.58
C       3.20       5.82      14.18
C       3.47       5.46      16.57
C      -1.31       5.01      17.72
C      -0.81       3.56      17.50
C      -0.20       3.47      16.15
C      -1.14       3.92      15.04
C       0.08       3.11      18.60
N       5.12       1.08       4.52
N      -0.44       7.48       6.20
N      -1.45      11.72      16.93
N       4.10       5.32      15.25
O       3.80      12.57       0.99
O       5.34       1.65       1.18
O       0.43      12.19       1.98
O       0.84       3.02       9.08
O       2.12       3.99       7.61
O       0.88       6.17       9.74
O      -0.66       8.05       9.55
O       4.24       5.79       8.75
O       3.84       9.42       1.65
O       2.56      10.39       3.11
O      -0.14       0.23      20.47
O      -1.68      11.15      20.27
O       3.23       0.61      19.48
O       2.82       9.78      12.38
O       1.54       8.81      13.84
O       2.79       6.63      11.71
O       4.33       4.75      11.91
O      -0.58       7.01      12.70
O      -0.17       3.38      19.81
O       1.11       2.41      18.34
