13

F      11.42       4.63       6.27
F      10.40       6.14       7.53
N      14.24       7.19       8.22
F      15.96       9.04       6.07
N      12.94       6.76       8.21
F      16.85       7.72       7.59
C      11.30       5.98       6.52
C      15.99       7.74       6.53
F      10.75       6.52       5.41
F      16.51       6.97       5.54
N      13.64       6.87       6.07
C      12.62       6.57       6.92
C      14.62       7.26       6.93
