13

C       4.37       2.72      22.48
C       7.72       2.27      21.32
F       3.44       2.28      21.58
N       7.40       3.37      20.62
F       9.61       1.39      22.43
F       9.87       1.96      20.33
F       3.99       3.97      22.89
F       4.33       1.90      23.56
F       8.67       0.19      20.85
N       6.11       3.68      20.99
C       5.74       2.75      21.88
C       8.99       1.47      21.22
N       6.71       1.85      22.12
