13

F       9.26      10.72      38.80
N      10.37      13.27      38.70
F       9.20      17.16      38.21
F       8.30      11.15      36.87
C       9.68      14.97      37.55
C       8.56      11.65      38.11
N       8.79      13.99      37.27
F       7.36      11.84      38.74
N      10.63      14.58      38.41
F      10.76      16.90      36.69
F       8.65      16.58      36.16
C       9.57      16.41      37.14
C       9.27      12.96      38.01
