13

C      13.15       7.82      12.89
C      13.98       5.89      12.87
N      13.24       7.48      11.60
F      12.25       9.94      12.34
F      11.43       8.88      14.11
N      13.77       6.21      11.58
F      15.92       4.91      13.79
F      14.82       3.76      12.28
C      12.56       9.11      13.38
C      14.67       4.64      13.31
F      13.42       9.77      14.19
F      14.00       4.01      14.32
N      13.60       6.86      13.73
