13

N       6.62       5.17      27.42
N       5.92       3.36      28.53
F       4.20       5.38      26.06
F       8.76       6.64      28.84
C       4.24       4.41      27.01
C       7.58       4.69      28.23
N       7.21       3.60      28.91
F       3.26       4.68      27.91
F       9.57       5.44      27.19
F       9.70       4.70      29.28
C       5.60       4.32      27.65
C       8.92       5.36      28.39
F       3.93       3.23      26.40
