13

C       2.72      11.20      32.41
C       2.43      14.57      31.31
F       1.86      16.45      32.60
F       2.26      10.25      31.55
N       3.43      14.17      30.52
F       2.60      16.81      30.55
C       2.76      12.55      31.78
C       1.87      15.96      31.33
N       3.65      12.86      30.83
F       3.97      10.82      32.80
F       1.92      11.20      33.52
F       0.58      15.95      30.88
N       1.96      13.59      32.11
