13

N       6.59       6.27      18.13
F       5.54       3.84      17.55
F       4.59       4.73      15.78
F       9.08       8.89      15.97
N       7.09       7.55      18.11
F       7.86      10.09      17.36
C       5.77       4.61      16.45
C       7.79       9.17      16.36
F       6.63       3.95      15.63
F       7.17       9.76      15.31
N       6.69       6.92      15.98
C       6.35       5.94      16.85
C       7.14       7.89      16.81
