13

F      10.40       2.67       8.78
N      13.02       3.43       8.95
F      10.86       1.72       6.85
F      16.98       2.23       8.17
C      11.26       1.84       8.15
C      14.69       2.72       7.78
C      12.66       2.37       8.20
N      13.67       1.89       7.45
F      11.15       0.60       8.71
N      14.34       3.64       8.68
F      16.50       3.92       6.86
F      16.16       1.85       6.15
C      16.09       2.67       7.23
