13

N       6.56       0.71      31.38
F       5.98       3.31      31.94
N       7.04      -0.57      31.43
F       9.16      -1.86      33.66
F       4.56       2.37      33.33
F       8.00      -3.01      32.20
C       5.89       2.47      33.00
C       7.89      -2.10      33.21
F       6.52       3.06      34.05
F       7.20      -2.68      34.23
C       6.47       1.12      32.66
C       7.24      -0.84      32.73
N       6.89       0.19      33.55
