13

N       3.43       6.24      10.77
F       4.39      10.20      11.49
F       5.06       3.95      12.79
F       4.50       3.63      10.69
C       5.10       4.50      11.54
C       4.10       7.90      11.97
C       4.18       9.30      12.50
N       4.92       6.88      12.31
F       6.41       4.58      11.16
N       3.20       7.55      11.05
F       3.03       9.69      13.13
F       5.20       9.40      13.40
C       4.46       5.87      11.53
