13

F       8.18       9.57      12.68
F       9.00       9.95      10.68
F       9.12       3.33      11.75
N      10.01       7.36      10.70
C       8.30       9.06      11.42
C       9.38       5.71      11.94
C       8.95       7.71      11.45
N       8.52       6.71      12.25
F       7.03       8.99      10.89
N      10.28       6.06      11.02
F      10.69       4.13      13.07
F       8.58       4.27      13.66
C       9.42       4.35      12.60
