13

F      10.14      11.08       8.32
F      16.25      12.26       6.88
F      16.86      11.19       8.71
N      14.19      10.42       9.09
C      15.93      12.03       8.19
C      12.49      11.12       7.95
N      13.50      11.92       7.56
N      12.86      10.21       8.86
F      10.95       9.93       6.65
F      10.89      12.14       6.53
F      16.04      13.22       8.84
C      11.11      11.09       7.37
C      14.54      11.45       8.29
