624

C       0.03      19.28       9.07
C       0.22       0.35       7.76
C       0.68      19.04       6.67
C       0.92      17.67       6.88
C       0.67      17.04       8.12
C       0.28      17.88       9.20
C      19.07       0.64      10.17
C      19.12       2.07      10.14
C      18.66       2.91      11.18
C      18.11       2.27      12.32
C      18.10       0.87      12.46
C      18.58       0.09      11.39
C      17.74       0.30      13.71
C      18.72       4.34      11.13
C       0.81      15.62       8.25
C       0.85       0.13       5.37
C       0.21       0.21      48.20
C      19.16       0.41      46.88
C       0.48       0.97      45.84
C       1.82       1.29      46.09
C       2.44       0.99      47.33
C       1.60       0.49      48.36
C      18.84      19.23      49.29
C      17.42      19.30      49.23
C      16.56      18.91      50.29
C      17.18      18.39      51.45
C      18.58      18.30      51.58
C      19.39      18.72      50.50
C      19.15      17.90      52.83
C      15.13      18.99      50.24
C       3.84       1.15      47.48
C      19.44       1.09      44.52
C      19.20      19.15      68.57
C      19.01       0.23      69.88
C      18.53      18.93      70.96
C      18.24      17.57      70.76
C      18.53      16.93      69.53
C      18.97      17.75      68.46
C       0.12       0.51      67.45
C      19.46       1.93      67.47
C       0.36       2.78      66.40
C       0.89       2.15      65.25
C       1.02       0.75      65.15
C       0.64      19.42      66.25
C       1.49       0.18      63.93
C       0.25       4.21      66.44
C      18.39      15.51      69.41
C      18.38       0.04      72.26
C      18.76       0.05      29.65
C      19.19      19.37      31.00
C      18.34       0.14      32.10
C      17.03       0.61      31.85
C      16.52       0.73      30.54
C      17.40       0.44      29.47
C       0.15      19.24      28.53
C       1.57      19.34      28.63
C       2.45      19.11      27.54
C       1.86      18.68      26.33
C       0.47      18.55      26.17
C      19.10      18.86      27.27
C      19.41      18.12      24.92
C       3.87      19.24      27.62
C      15.14       1.03      30.34
C      18.69      19.24      33.43
C      18.45      18.82      22.83
C      18.67       0.49      22.02
C      18.50      18.67      20.01
C      18.20      17.50      20.75
C      18.17      17.60      22.16
C      18.63      18.72      18.60
C       0.37      19.10      17.94
C       0.35      19.18      16.53
C      18.64      18.90      15.78
C      17.50      18.49      16.51
C       0.83      18.55      61.90
C      19.14      18.73      61.10
C       0.95      18.54      59.08
C       2.14      18.27      59.82
C       2.05      18.27      61.23
C       0.90      18.68      57.68
C       0.55       0.44      57.03
C       0.46       0.43      55.62
C       0.69      18.72      54.86
C       1.06      17.55      55.57
C       0.00       0.90      74.22
C      18.44       1.54      74.94
C       0.01       1.01      77.04
C       1.10       0.38      76.37
C       1.08       0.36      74.96
C      19.31       1.03       0.59
C      18.22       0.40       1.26
C      18.22       0.43       2.68
C      19.28       1.00       3.41
C       0.85       1.63       2.68
C       0.56       0.09      35.39
C       0.33      18.37      36.13
C       0.61       0.04      38.22
C       0.92       1.26      37.54
C       0.89       1.25      36.13
C       0.45      19.39      39.62
C       1.09      18.41      40.43
C       0.81      18.42      41.82
C      19.41      19.37      42.41
C      18.77       0.82      41.54
C       0.16       6.43      10.19
C      18.57       7.32      10.52
C       0.46       9.28      10.12
C       1.55       8.44       9.73
C       1.35       7.03       9.73
C       0.41      10.70      10.06
C      18.97      11.55      10.77
C      18.96      12.93      10.46
C       0.36      13.52       9.50
C       1.26      12.63       8.89
C      13.04       0.12      49.04
C      12.15      18.65      49.62
C      10.23       0.10      48.48
C      11.07       1.04      47.82
C      12.46       1.03      48.13
C       8.81       0.05      48.43
C       7.99      18.39      48.80
C       6.58      18.58      48.84
C       5.96       0.32      48.42
C       6.82       1.38      48.09
C      19.19       6.31      67.66
C       0.62       7.20      67.03
C      19.28       9.11      68.26
C      18.37       8.27      68.97
C      18.35       6.89      68.64
C      19.37      10.53      68.34
C       1.01      11.34      67.92
C       0.85      12.75      67.92
C      19.15      13.39      68.43
C      18.10      12.53      68.81
C       5.95       0.21      28.87
C       6.83      18.83      28.16
C       8.79       0.18      29.32
C       7.95       1.02      30.12
C       6.55       1.02      29.87
C      10.21       0.14      29.30
C      11.02      18.56      28.75
C      12.42      18.77      28.67
C      13.05       0.45      29.23
C      12.19       1.45      29.73
C       7.03       6.82       9.07
C       7.22       7.35       7.76
C       7.68       6.58       6.67
C       7.92       5.20       6.88
C       7.67       4.57       8.12
C       7.28       5.42       9.20
C       6.61       7.64      10.17
C       6.66       9.07      10.14
C       6.20       9.91      11.18
C       5.65       9.27      12.32
C       5.64       7.87      12.46
C       6.11       7.09      11.39
C       5.27       7.30      13.71
C       6.26      11.34      11.13
C       7.81       3.16       8.25
C       7.85       7.13       5.37
C       7.21       7.21      48.20
C       6.70       7.41      46.88
C       7.48       7.97      45.84
C       8.82       8.29      46.09
C       9.44       7.99      47.33
C       8.60       7.49      48.36
C       6.38       6.77      49.29
C       4.96       6.84      49.23
C       4.10       6.44      50.29
C       4.72       5.92      51.45
C       6.12       5.84      51.58
C       6.92       6.26      50.50
C       6.69       5.44      52.83
C       2.67       6.53      50.24
C      10.84       8.15      47.48
C       6.98       8.09      44.52
C       6.73       6.69      68.57
C       6.55       7.23      69.88
C       6.06       6.47      70.96
C       5.78       5.11      70.76
C       6.07       4.47      69.53
C       6.51       5.28      68.46
C       7.12       7.51      67.45
C       7.00       8.93      67.47
C       7.36       9.78      66.40
C       7.89       9.15      65.25
C       8.02       7.75      65.15
C       7.64       6.96      66.25
C       8.49       7.18      63.93
C       7.25      11.21      66.44
C       5.93       3.05      69.41
C       5.91       7.04      72.26
C       6.29       7.05      29.65
C       6.73       6.90      31.00
C       5.88       7.14      32.10
C       4.57       7.61      31.85
C       4.06       7.73      30.54
C       4.94       7.44      29.47
C       7.15       6.78      28.53
C       8.57       6.88      28.63
C       9.45       6.65      27.54
C       8.86       6.22      26.33
C       7.47       6.09      26.17
C       6.63       6.40      27.27
C       6.94       5.65      24.92
C      10.87       6.78      27.62
C       2.68       8.03      30.34
C       6.22       6.77      33.43
C       5.99       6.36      22.83
C       6.21       7.49      22.02
C       6.04       6.21      20.01
C       5.74       5.03      20.75
C       5.71       5.14      22.16
C       6.17       6.25      18.60
C       7.37       6.64      17.94
C       7.35       6.72      16.53
C       6.18       6.44      15.78
C       5.04       6.03      16.51
C       7.83       6.08      61.90
C       6.68       6.27      61.10
C       7.95       6.07      59.08
C       9.14       5.80      59.82
C       9.05       5.81      61.23
C       7.90       6.22      57.68
C       7.55       7.44      57.03
C       7.46       7.43      55.62
C       7.69       6.25      54.86
C       8.06       5.09      55.57
C       7.00       7.90      74.22
C       5.98       8.54      74.94
C       7.01       8.01      77.04
C       8.10       7.38      76.37
C       8.08       7.36      74.96
C       6.84       8.03       0.59
C       5.75       7.40       1.26
C       5.76       7.43       2.68
C       6.82       8.00       3.41
C       7.85       8.63       2.68
C       7.56       7.09      35.39
C       7.33       5.91      36.13
C       7.61       7.04      38.22
C       7.92       8.26      37.54
C       7.89       8.25      36.13
C       7.45       6.93      39.62
C       8.09       5.95      40.43
C       7.81       5.96      41.82
C       6.95       6.91      42.41
C       6.31       7.82      41.54
C       7.16      13.43      10.19
C       6.11      14.32      10.52
C       7.46      16.28      10.12
C       8.55      15.44       9.73
C       8.35      14.03       9.73
C       7.41      17.70      10.06
C       6.50      18.55      10.77
C       6.49       0.47      10.46
C       7.36       1.06       9.50
C       8.26       0.17       8.89
C       0.58       7.12      49.04
C      19.15       6.19      49.62
C      17.23       7.10      48.48
C      18.07       8.04      47.82
C      19.46       8.03      48.13
C      15.81       7.05      48.43
C      14.99       5.93      48.80
C      13.58       6.12      48.84
C      12.96       7.32      48.42
C      13.82       8.38      48.09
C       6.73      13.31      67.66
C       7.62      14.20      67.03
C       6.82      16.11      68.26
C       5.91      15.27      68.97
C       5.88      13.89      68.64
C       6.91      17.53      68.34
C       8.01      18.34      67.92
C       7.85       0.29      67.92
C       6.69       0.93      68.43
C       5.63       0.07      68.81
C      12.95       7.21      28.87
C      13.83       6.37      28.16
C      15.79       7.18      29.32
C      14.95       8.02      30.12
C      13.55       8.02      29.87
C      17.21       7.14      29.30
C      18.02       6.10      28.75
C      19.42       6.31      28.67
C       0.59       7.45      29.23
C      19.19       8.45      29.73
H      19.46       1.32       7.55
H       0.26      17.47      10.12
H       1.20      17.10       6.07
H       0.05       2.53       9.32
H      17.81       2.84      13.12
H      18.48      18.54      11.50
H      18.22       0.12      46.64
H       2.02       0.43      49.29
H       2.39       1.62      45.31
H      16.99       0.23      48.41
H      16.62      18.11      52.26
H       0.93      18.59      50.61
H      19.26       1.20      70.07
H      19.02      17.31      67.54
H      17.95      17.01      71.56
H      19.04       2.36      68.29
H       1.15       2.71      64.44
H       0.81      18.42      66.17
H       0.65      18.96      31.19
H      17.06       0.63      28.52
H      16.41       0.76      32.65
H       1.97       0.20      29.51
H       2.45      18.48      25.52
H      18.10      18.69      27.15
H      17.98      16.77      22.73
H       1.19       0.01      16.03
H      16.63      18.25      16.03
H      18.89       1.40      22.44
H       1.61      19.28      19.56
H       2.34       0.16      18.11
H      17.82      15.49      20.71
H      18.06      16.16      19.21
H       0.05      18.86      13.98
H      18.31       0.30      24.60
H       2.89      18.11      61.79
H       0.18       1.28      55.13
H       1.26      16.68      55.08
H      18.24      18.95      61.52
H       0.42       1.67      58.66
H       0.09       2.42      57.23
H       4.15      17.91      59.76
H       3.46      18.10      58.26
H       0.77       0.12      53.06
H      19.37      18.44      63.68
H       1.82      19.33      74.45
H      17.48      19.40       3.19
H       1.63       2.07       3.16
H      17.64       1.96      74.46
H      17.21      19.08      77.51
H      16.51      18.76       1.12
H       2.83      18.77      76.54
H       2.14      19.14       0.14
H      18.49       0.95       5.25
H       0.78       0.78      72.38
H       1.06       2.12      35.61
H       1.30      17.75      42.43
H      18.11       1.51      41.89
H       0.10      17.49      35.66
H       2.28      17.53      39.02
H       2.44      16.88      40.53
H       1.48       3.21      37.70
H       1.36       2.44      39.15
H      19.35      18.56      44.24
H       0.97       0.75      33.54
H       2.14       6.42       9.49
H      18.30      13.54      10.97
H       1.98      12.95       8.24
H      17.64       6.99      10.76
H      18.30      10.26      12.22
H      17.61      11.76      12.29
H       3.53       8.27       9.24
H       3.08       9.79       9.65
H      19.15      15.36       9.87
H       0.77       4.56       9.85
H      13.07       1.70      47.65
H       5.98      17.78      49.06
H       6.47       2.31      47.88
H      12.47      17.89      50.22
H       9.35      16.87      48.75
H       7.84      16.39      49.19
H      11.29       2.46      46.37
H       9.79       1.78      46.41
H       4.11      19.11      48.77
H      14.90       0.71      48.65
H      17.71       6.27      69.16
H       1.64      13.34      67.66
H      17.19      12.89      69.09
H       1.34       6.89      66.38
H       2.51       9.95      67.84
H       2.98      11.46      67.40
H      17.04       8.05      70.51
H      17.73       9.54      70.45
H       0.36      15.23      68.05
H      18.61       4.45      68.08
H       5.95       1.61      30.44
H      13.01      18.01      28.32
H      12.55       2.34      30.07
H       6.51      18.14      27.49
H       9.69      17.02      28.69
H      11.17      16.63      28.11
H       7.78       2.27      31.73
H       9.28       1.63      31.55
H      14.89      19.30      28.76
H       4.08       0.69      29.38
H       6.99       8.32       7.55
H       7.26       5.01      10.12
H       8.20       4.64       6.07
H       7.05       9.53       9.32
H       5.35       9.84      13.12
H       6.02       6.08      11.50
H       5.75       7.12      46.64
H       9.02       7.43      49.29
H       9.39       8.62      45.31
H       4.53       7.23      48.41
H       4.15       5.65      52.26
H       7.93       6.13      50.61
H       6.80       8.20      70.07
H       6.56       4.85      67.54
H       5.48       4.55      71.56
H       6.58       9.36      68.29
H       8.15       9.71      64.44
H       7.81       5.95      66.17
H       7.65       6.50      31.19
H       4.60       7.63      28.52
H       3.95       7.76      32.65
H       8.97       7.20      29.51
H       9.45       6.02      25.52
H       5.63       6.23      27.15
H       5.52       4.31      22.73
H       8.19       7.01      16.03
H       4.17       5.79      16.03
H       6.43       8.40      22.44
H       8.61       6.81      19.56
H       9.34       7.16      18.11
H       5.36       3.03      20.71
H       5.60       3.69      19.21
H       7.05       6.40      13.98
H       5.85       7.30      24.60
H       9.89       5.65      61.79
H       7.18       8.28      55.13
H       8.26       4.22      55.08
H       5.78       6.49      61.52
H       7.42       8.67      58.66
H       7.09       9.42      57.23
H      11.15       5.45      59.76
H      10.46       5.64      58.26
H       7.77       7.12      53.06
H       6.91       5.97      63.68
H       8.82       6.87      74.45
H       5.02       6.94       3.19
H       8.63       9.07       3.16
H       5.18       8.96      74.46
H       4.75       6.62      77.51
H       4.04       6.29       1.12
H       9.83       6.31      76.54
H       9.14       6.68       0.14
H       6.02       7.95       5.25
H       7.78       7.78      72.38
H       8.06       9.12      35.61
H       8.30       5.29      42.43
H       5.65       8.51      41.89
H       7.10       5.03      35.66
H       9.28       5.07      39.02
H       9.44       4.42      40.53
H       8.48      10.21      37.70
H       8.36       9.44      39.15
H       6.88       6.10      44.24
H       7.97       7.75      33.54
H       9.14      13.42       9.49
H       5.84       1.08      10.97
H       8.98       0.48       8.24
H       5.18      13.99      10.76
H       5.83      17.26      12.22
H       5.15      18.76      12.29
H      10.53      15.27       9.24
H      10.08      16.79       9.65
H       6.69       2.90       9.87
H       7.77      11.56       9.85
H       0.61       8.70      47.65
H      12.98       5.32      49.06
H      13.47       9.31      47.88
H       0.00       5.43      50.22
H      16.35       4.41      48.75
H      14.84       3.93      49.19
H      18.29       9.46      46.37
H      16.79       8.78      46.41
H      11.11       6.65      48.77
H       2.44       7.71      48.65
H       5.24      13.27      69.16
H       8.64       0.88      67.66
H       4.72       0.43      69.09
H       8.34      13.89      66.38
H       9.51      16.95      67.84
H       9.98      18.46      67.40
H       4.58      15.05      70.51
H       5.27      16.54      70.45
H       7.36       2.77      68.05
H       6.15      11.45      68.08
H      12.95       8.61      30.44
H       0.55       5.55      28.32
H       0.09       9.34      30.07
H      13.51       5.67      27.49
H      16.69       4.55      28.69
H      18.17       4.17      28.11
H      14.78       9.27      31.73
H      16.28       8.63      31.55
H       2.43       6.84      28.76
H      11.08       7.69      29.38
N      18.71       0.38      20.68
N      17.53      18.43      17.86
N       1.53      19.38      18.60
N      18.00      16.28      20.17
N      18.66      19.04      14.42
N      18.58      18.92      24.19
N      19.25      18.75      59.75
N       1.14      17.57      56.92
N       0.32       1.60      57.70
N       3.35      18.07      59.23
N       0.53      18.74      53.50
N       0.74      18.72      63.26
N      18.48       1.57      76.29
N       0.83       1.62       1.32
N      17.22      19.20       0.62
N       2.12      19.22      77.02
N      19.33       0.86       4.77
N      19.40       0.71      72.86
N       0.33      18.40      37.48
N      19.04       0.79      40.21
N       1.99      17.52      39.94
N       1.25       2.41      38.19
N      19.27      19.42      43.77
N       0.39       0.15      34.03
N      18.77       8.65      10.46
N       1.24      11.31       9.17
N      18.18      11.13      11.80
N       2.81       8.89       9.45
N       0.28      14.87       9.27
N       0.07       5.06      10.30
N      10.83      18.70      49.34
N       8.16       1.21      48.13
N       8.45      17.13      49.00
N      10.66       1.89      46.83
N       4.59       0.37      48.33
N      14.40       0.14      49.25
N       0.62       8.51      67.34
N      18.24      11.19      68.73
N       2.25      10.86      67.63
N      17.61       8.68      70.02
N      19.12      14.76      68.53
N      19.15       4.95      67.45
N       8.16      18.87      28.40
N      10.85       1.26      29.73
N      10.56      17.32      28.41
N       8.39       1.76      31.18
N      14.42       0.48      29.32
N       4.59       0.24      28.69
N       6.25       7.38      20.68
N       5.07       5.96      17.86
N       8.53       6.91      18.60
N       5.54       3.82      20.17
N       6.19       6.58      14.42
N       6.11       6.46      24.19
N       6.79       6.28      59.75
N       8.14       5.11      56.92
N       7.32       8.60      57.70
N      10.35       5.60      59.23
N       7.53       6.28      53.50
N       7.74       6.26      63.26
N       6.01       8.57      76.29
N       7.83       8.62       1.32
N       4.76       6.73       0.62
N       9.12       6.75      77.02
N       6.87       7.86       4.77
N       6.94       7.71      72.86
N       7.33       5.93      37.48
N       6.58       7.79      40.21
N       8.99       5.05      39.94
N       8.25       9.41      38.19
N       6.81       6.95      43.77
N       7.39       7.15      34.03
N       6.30      15.65      10.46
N       8.24      18.31       9.17
N       5.71      18.13      11.80
N       9.81      15.89       9.45
N       7.28       2.41       9.27
N       7.07      12.06      10.30
N      17.83       6.24      49.34
N      15.16       8.21      48.13
N      15.45       4.67      49.00
N      17.66       8.89      46.83
N      11.59       7.37      48.33
N       1.94       7.14      49.25
N       7.62      15.51      67.34
N       5.78      18.19      68.73
N       9.25      17.86      67.63
N       5.14      15.68      70.02
N       6.66       2.30      68.53
N       6.68      11.95      67.45
N      15.16       6.41      28.40
N      17.85       8.26      29.73
N      17.56       4.86      28.41
N      15.39       8.76      31.18
N       1.95       7.48      29.32
N      11.59       7.24      28.69
O      16.67       0.85      14.34
O       1.32      14.96       7.18
O       1.92      19.15       4.66
O      18.07       5.01      12.11
O      18.54      16.89      53.48
O       4.49       1.85      46.52
O       0.20       2.27      43.91
O      14.45      18.55      51.33
O       2.49       0.83      63.30
O      17.75      14.87      70.42
O      17.31      19.09      72.99
O       0.64       4.88      65.33
O       0.60      17.09      24.33
O      14.48       1.56      31.40
O      17.71      18.64      34.16
O       4.56      19.03      26.47
O       4.21       7.85      14.34
O       8.32       2.50       7.18
O       8.92       6.69       4.66
O       5.61      12.01      12.11
O       6.08       4.42      53.48
O      11.49       8.85      46.52
O       7.20       9.27      43.91
O       1.99       6.09      51.33
O       9.49       7.83      63.30
O       5.28       2.41      70.42
O       4.85       6.62      72.99
O       7.64      11.88      65.33
O       7.60       4.63      24.33
O       2.01       8.56      31.40
O       5.25       6.18      34.16
O      11.56       6.57      26.47
