120

C       0.84      12.32       6.09
C       9.21      11.38       7.64
C       0.84       4.84      19.00
C       9.25       3.92      20.61
C       9.96      13.73       7.94
C       9.90      13.77       9.36
C       9.91       0.03      10.10
C       9.95       1.24       9.36
C       0.00       1.28       7.95
C       0.03       0.03       7.27
C       0.11       8.75       5.06
C       0.17       8.72       3.64
C       0.15       7.51       2.90
C       0.12       6.30       3.64
C       0.08       6.26       5.05
C       0.06       7.50       5.73
C       0.07       5.02       5.76
C       0.84       3.90       5.35
C       0.84       2.69       6.08
C       0.02       2.52       7.24
C       9.22       3.64       7.65
C       9.23       4.85       6.92
C       0.14       7.52       1.47
C       0.94       8.43       0.72
C       0.76       0.92      12.26
C       9.92       0.02      11.53
C       9.13      14.05      12.28
C       9.30       6.62       0.74
C       0.08       9.99       5.77
C       0.86      11.11       5.36
C       0.01      12.50       7.23
C       9.23      10.16       6.91
C       0.05       6.26      20.88
C       0.06       6.30      22.29
C       0.12       7.50      23.04
C       0.15       8.71      22.30
C       0.10       8.75      20.88
C       0.06       7.51      20.20
C       0.04       1.28      18.01
C       0.02       1.24      16.59
C       9.94       0.03      15.85
C       9.91      13.77      16.59
C       9.96      13.73      18.01
C       0.03       0.03      18.68
C       0.02      12.49      18.71
C       0.87      12.31      19.84
C       0.88      11.09      20.57
C       0.07       9.99      20.17
C       9.20      10.18      19.05
C       9.19      11.39      18.32
C       9.93       0.04      14.43
C       0.75       0.95      13.68
C       0.95       8.41      25.20
C       0.13       7.50      24.46
C       9.31       6.59      25.21
C       9.12      14.08      13.69
C       0.04       2.52      18.72
C       0.82       3.62      18.28
C       0.05       5.02      20.17
C       9.23       2.70      19.89
H       9.96       2.12       9.88
H       9.92       0.04       6.25
H       0.03      12.89       9.87
H       0.11       5.42       3.12
H       0.14       7.50       6.75
H       0.06       9.60       3.13
H       2.52       1.84       6.29
H       8.54       4.09       9.37
H       1.52       3.45       3.63
H       7.55       5.70       6.71
H       2.46       1.12      11.44
H       8.46      12.34      11.78
H       1.61      10.14       1.22
H       7.60       6.42       1.56
H       2.51      13.18       6.31
H       8.52      10.93       9.36
H       1.54      11.56       3.64
H       7.55       9.30       6.69
H       0.07       9.59      22.81
H       0.03       7.51      19.18
H       0.18       5.42      22.80
H       0.02      12.89      16.08
H       0.06       0.03      19.70
H       9.88       2.12      16.09
H       1.60      11.52      22.28
H       7.51       9.35      19.32
H       2.55      13.13      19.57
H       8.47      10.97      16.61
H       2.64       8.64      24.37
H       8.62       4.88      24.73
H       1.44       2.65      14.16
H       7.43      13.84      14.52
H       2.53       5.67      19.18
H       8.62       3.48      22.35
H       1.45       4.06      16.53
H       7.54       1.87      19.71
O       1.74       1.74       5.70
O       1.78       4.04       4.37
O       8.28       3.49       8.63
O       8.33       5.80       7.30
O       1.69       1.70      11.64
O       1.87       9.21       1.35
O       8.19      13.28      11.65
O       8.37       5.84       1.36
O       1.74      13.28       5.71
O       1.80      10.97       4.39
O       8.26      11.51       8.61
O       8.33       9.21       7.29
O       1.84      10.93      21.52
O       1.80      13.24      20.19
O       8.27       9.24      18.70
O       8.22      11.55      17.36
O       1.86       9.21      24.57
O       1.69       1.71      14.30
O       8.37       5.82      24.59
O       8.21      13.28      14.32
O       1.74       5.78      18.60
O       1.73       3.47      17.27
O       8.34       4.07      21.62
O       8.33       1.76      20.29
