30

C       4.12       6.85      14.57
I       4.10       7.47       9.59
I       6.37       3.96       8.81
I       3.13       3.64      11.85
C       5.83       6.91      13.11
C       3.01       4.21       6.86
I       0.76       6.99      12.55
I       1.73      10.82      10.29
I      -1.50      10.50      13.33
C       1.31       4.15       8.36
N       4.51       6.82      13.29
N       6.87       3.55      12.72
C       6.48       3.55      14.01
Cu       3.96       4.81       9.58
Cu       3.22       6.35      11.79
Cu       5.61       3.70      11.20
N       0.36       7.64       8.85
N       2.24      10.16      14.00
N      -2.00      10.91       9.42
Cu       0.91       9.65      12.56
Cu       1.64       8.12      10.35
Cu      -0.75      10.76      10.94
N       2.63       4.30       8.14
C       1.86      10.26      15.28
C       3.56      10.31      13.78
C       0.75       7.61       7.56
C      -0.97       7.56       9.03
C       8.20       3.56      12.51
C      -1.61      10.91       8.13
C      -3.33      10.91       9.62
