22

C      -0.07      14.05      19.74
C       4.73      16.20      23.76
Gd      -2.42      14.76      22.29
O      -3.36      13.30      24.07
Gd       2.42      14.16      21.99
O      -1.14      15.16      24.30
O       0.89      14.62      23.62
O      -3.90      13.38      21.19
O       3.77      12.73      20.74
O      -1.50      12.59      23.10
O       3.36      15.63      20.21
O       1.50      16.34      21.18
O       1.14      13.77      19.97
O      -0.89      14.31      20.66
O       3.90      15.54      23.09
C      -2.28      12.64      24.10
O      -3.77      16.20      23.54
C      -1.90      11.96      25.39
C       0.07      14.88      24.54
C       5.00      12.73      20.51
C       1.90      16.96      18.88
C       2.28      16.29      20.17
