30

I      -0.76      -3.36      12.55
I      -1.73       0.46      10.29
I       1.50       0.15      13.33
I      -4.10      -2.89       9.59
I      -3.13      -6.71      11.85
I      -6.37      -6.40       8.81
N      -2.63      -6.06       8.14
N      -0.36      -2.72       8.85
N       2.00       0.56       9.42
Cu      -0.91      -0.70      12.56
Cu      -1.64      -2.24      10.35
N      -2.24      -0.20      14.00
N      -4.51      -3.54      13.29
Cu       0.75       0.40      10.94
N      -6.87      -6.81      12.72
Cu      -3.96      -5.55       9.58
Cu      -3.22      -4.01      11.79
Cu      -5.61      -6.65      11.20
C      -3.01      -6.15       6.86
C      -1.31      -6.21       8.36
C      -0.75      -2.74       7.56
C       0.97      -2.80       9.03
C       1.61       0.55       8.13
C       3.33       0.55       9.62
C      -1.86      -0.10      15.28
C      -3.56      -0.04      13.78
C      -4.12      -3.51      14.57
C      -5.83      -3.45      13.11
C      -6.48      -6.80      14.01
C      -8.20      -6.80      12.51
