74

H      -6.36       9.35       6.65
H      -8.09      11.87       2.73
H      -5.06       9.41       4.52
H      -9.41      11.80       4.84
H      -8.30      10.33       9.72
H      -8.31       8.27      11.06
H     -11.05      10.44       8.34
H      -9.33      15.05       7.66
H     -12.35      12.40       9.16
H      -8.00      13.10       6.86
H      -9.11       8.04       6.18
H      -9.10       5.97       7.49
H     -11.05       3.26      12.95
H      -9.33       0.74      16.87
H     -12.35       3.20      15.08
H      -8.00       0.82      14.76
H      -9.11       2.29       9.88
H      -9.10       4.34       8.54
H      -6.36       2.18      11.26
H      -8.09      -2.43      11.94
H      -5.06       0.22      10.44
H      -9.41      -0.48      12.74
H      -8.30       4.57      13.43
H      -8.31       6.64      12.11
C      -5.71      10.70       2.23
C      -6.74       9.89       5.79
C      -7.97      10.57       5.88
C      -7.72      11.33       3.60
C      -6.49      10.65       3.49
C      -6.02       9.93       4.60
C      -8.46      11.29       4.77
C      -8.49       9.37       9.24
C      -8.49       8.19       9.99
C     -11.71      15.02       8.94
C     -10.68      11.45       8.20
C      -9.45      11.64       7.54
C      -9.70      14.03       7.80
C     -10.93      13.85       8.46
C     -11.40      12.54       8.66
C      -8.96      12.95       7.35
C      -8.93       8.08       7.25
C      -8.92       6.91       8.00
C     -11.71       1.92      17.37
C     -10.68       2.72      13.82
C      -9.45       2.04      13.72
C      -9.70       1.28      16.00
C     -10.93       1.96      16.11
C     -11.40       2.68      15.00
C      -8.96       1.33      14.83
C      -8.93       3.25      10.36
C      -8.92       4.42       9.61
C      -5.71      -2.41      10.66
C      -6.74       1.17      11.40
C      -7.97       0.98      12.06
C      -7.72      -1.42      11.80
C      -6.49      -1.24      11.14
C      -6.02       0.07      10.94
C      -8.45      -0.33      12.25
C      -8.49       4.53      12.35
C      -8.49       5.70      11.60
C      -8.71       9.32       7.86
C      -8.71       6.93       9.40
C      -8.71       3.29      11.74
C      -8.71       5.68      10.20
N      -8.71      10.52       7.09
N      -8.71       2.09      12.51
O      -4.62      10.02       2.18
O      -6.18      11.42       1.27
O     -12.79      14.78       9.58
O     -11.24      16.19       8.68
O     -12.79       2.60      17.42
O     -11.24       1.20      18.33
O      -4.62      -2.17      10.02
O      -6.18      -3.57      10.92
