15

C       2.28       6.75       3.84
C       2.21       3.49       6.59
C       1.45       5.72       5.75
O       1.28       3.59       7.45
C       2.13       7.95       2.92
C       3.24       5.75       3.67
C       3.26       4.67       4.57
O       3.00       2.51       6.41
H       0.74       5.78       6.57
O       1.16       8.72       3.13
H       3.92       5.79       2.83
N       1.40       6.72       4.86
O       3.01       8.06       2.00
H       3.96       3.85       4.46
C       2.34       4.65       5.63
