15

C       6.55       6.52       1.81
O       9.11       8.36       4.51
C       8.77       7.07       2.58
H       5.47       6.62       1.84
C       7.14       5.71       0.84
C       6.30       4.89      -0.11
H       6.98       7.87       3.47
O      10.94       7.65       3.34
O       5.11       4.66       0.13
C       9.69       7.75       3.56
O       6.97       4.46      -1.17
C       7.38       7.21       2.70
C       9.28       6.28       1.55
H      10.35       6.18       1.42
N       8.48       5.62       0.70
