78

Mn      -1.90       7.97       4.05
Mn       3.71      11.10       8.05
Mn       0.91       9.54       6.05
Mn      -5.23       9.54       6.05
Ge      -1.70       8.43      10.80
Ge      -5.86       4.32       0.44
Ge       0.12      14.63       1.84
Ge       3.08       4.42       1.48
Ge       3.51      10.64       1.30
Ge       7.67      14.75      11.66
Ge       1.69       4.45      10.27
Ge      -1.27      14.65      10.63
H      -3.05       7.30       8.94
H      -1.32       7.42       8.55
H      -4.39       5.61      -1.09
H      -3.42       4.71       0.10
H       0.47      13.43       4.04
H       1.43      12.70       2.74
H       0.81       4.98       2.44
H       1.49       6.33       1.49
H       4.87      11.77       3.17
H       3.13      11.65       3.56
H       6.20      13.47      13.20
H       5.23      14.36      12.00
H       1.35       5.64       8.07
H       0.38       6.37       9.36
H       1.00      14.09       9.66
H       0.33      12.74      10.61
C      -2.18       7.97       8.95
C      -2.42       9.24       8.12
C      -2.41       8.86       6.67
C      -4.27       5.39      -0.03
C      -4.11       6.67       0.78
C      -3.64       6.44       2.21
C       0.44      13.07       3.00
C      -0.61      11.98       2.81
C      -0.50      10.76       3.70
C       1.71       5.59       2.27
C       2.17       6.28       3.54
C       1.13       7.22       4.13
C       4.00      11.11       3.15
C       4.23       9.83       3.99
C       4.22      10.21       5.44
C       6.09      13.69      12.13
C       5.92      12.41      11.32
C       5.45      12.63       9.89
C       1.38       6.01       9.10
C       2.42       7.09       9.30
C       2.32       8.31       8.40
C       0.11      13.49       9.83
C      -0.36      12.79       8.56
C       0.69      11.85       7.97
S       0.17       9.61      10.48
S      -3.37       9.68      11.60
S      -1.30       6.56      11.95
S      -7.38       5.72       1.30
S      -5.35       2.59       1.74
S      -1.51      15.81       2.84
S       1.64       9.46       1.62
S       5.19       9.39       0.50
S       3.11      12.51       0.15
S      -3.08      13.35      10.80
S      -0.25       3.34      10.36
S       3.32       3.26       9.26
O      -1.32       8.54       6.09
O      -3.51       8.75       5.99
O      -3.37       7.56       2.85
O      -1.39       9.88       3.52
O       0.46      10.72       4.56
O      -0.09       7.01       3.87
O       1.59       8.16       4.88
O       3.13      10.53       6.01
O      -6.95      10.32       6.12
O       5.18      11.51       9.25
O       3.20       9.19       8.58
O       1.36       8.35       7.54
O       1.90      12.06       8.23
O       0.22      10.92       7.22
