18

C       3.40       7.00       3.69
C       3.18       9.44       4.00
H       2.56       6.07       1.29
N       3.85       8.35       3.26
C       2.23       8.40      -1.68
C       4.45       8.41      -1.88
N       3.41       8.39      -1.08
C       3.89       5.93       2.70
C       4.11       5.43       0.30
N       3.44       6.26       1.33
N       3.88      10.57       0.94
C       5.06      11.17       0.88
C       2.84      11.37       0.85
O       1.50       8.64       1.31
Cr       0.18       7.77       1.79
O       5.79       8.18       0.88
Zn       3.64       8.42       1.08
H       4.73       8.40       3.45
