15

C       2.18       0.17       0.05
C       0.11       2.88      -1.45
N       1.18      -0.72      -1.90
H       1.85       2.31       0.33
C      -0.40       0.43      -3.29
H       2.72       0.06       0.81
H       2.46      -1.65      -0.70
O      -1.02       1.46      -3.57
C       0.72       1.53      -1.25
C       1.56       1.35      -0.18
C       2.01      -0.85      -0.83
O      -1.05       3.12      -1.05
C       0.53       0.45      -2.11
O      -0.52      -0.67      -3.89
O       0.89       3.76      -1.91
