15

N       6.69       0.72       1.90
H       6.03      -2.31      -0.33
O       6.98      -3.76       1.91
C       6.32      -1.35       0.18
H       5.41       1.65       0.70
H       5.15      -0.06      -0.81
O       8.93      -3.12       1.05
O       8.40       0.67       3.89
C       7.34      -0.45       2.11
C       8.28      -0.43       3.29
C       7.16      -1.53       1.25
O       8.90      -1.46       3.57
C       5.69      -0.17      -0.05
C       5.87       0.85       0.83
C       7.77      -2.88       1.45
