15

C      -1.06       2.97       7.55
C      -0.21       4.04       7.77
N      -0.59       3.10       5.23
H      -0.05       4.34       8.63
C       0.39       4.66       6.69
C      -1.70       2.34       8.78
O      -0.91       1.62       9.45
O      -2.32       1.23       4.63
C      -1.26       2.51       6.25
H       0.92       5.42       6.82
H       0.67       4.51       4.74
C       0.21       4.13       5.45
O      -2.84       2.64       9.14
C      -2.20       1.40       5.86
O      -2.81       0.81       6.75
