22

Cr       6.60       3.79       9.37
Cr      10.02       3.84       9.39
Cr       8.26       6.82       9.48
O       9.59       2.52       7.82
O      10.58       5.13       8.02
O       5.64       4.81      10.92
O       7.38       2.64      10.75
O       9.59       2.44      10.86
O       9.64       7.17       7.98
O       6.91       6.73       8.06
C       8.47       2.35       7.32
C      10.42       6.28       7.50
C       5.99       6.05       7.50
C       8.43       2.14      11.26
C      10.38       6.15      11.48
C       6.07       5.89      11.44
O       5.64       4.89       7.88
O      10.58       5.06      10.85
O       9.64       7.09      11.02
O       6.91       6.66      10.88
O       8.29       4.82       9.42
O       7.38       2.71       7.93
