22

O      13.87       8.04      18.81
Cr      15.57       9.04      18.69
Cr      13.87       6.04      18.93
Cr      12.15       9.04      18.81
C      16.03       6.80      20.82
C      11.66       6.96      20.90
C      14.04      10.77      20.60
C      16.00       6.50      16.90
C      11.51       6.71      17.00
C      13.90      10.49      16.69
O      15.18      10.50      20.14
O      16.21       7.90      20.15
O      15.31       5.86      20.42
O      12.57       6.25      20.38
O      11.28       8.08      20.43
O      12.97      10.27      20.12
O      15.07      10.29      17.10
O      16.10       7.70      17.34
O      15.20       5.65      17.38
O      12.47       6.05      17.57
O      11.16       7.87      17.39
O      12.86      10.07      17.30
