11

O      -0.14       9.62      35.32
Zn      -0.00      10.09      33.23
C      -1.82      12.10      32.03
N       1.67      11.30      33.37
N      -1.67      11.30      33.10
O       0.14       9.62      31.15
C       1.82      12.10      34.44
C       0.71       8.66      35.24
C       2.66      11.27      32.45
C      -0.71       8.66      31.22
C      -2.66      11.27      34.02
