15

O       2.59       4.05       9.13
N       0.86      -0.24      10.14
H       0.41       3.11       8.23
C       0.53       2.17       8.76
C       1.52       2.04       9.73
C      -0.31       1.08       8.49
H       2.40       0.69      11.18
H      -0.72      -0.98       9.00
C      -1.38       1.18       7.44
O      -1.54       2.30       6.87
O       3.10       3.16      11.13
C       1.64       0.82      10.41
O      -2.06       0.13       7.18
C       2.47       3.17      10.02
C      -0.10      -0.11       9.20
