291

H       4.08      12.33       2.56
H       5.34      11.12       0.91
H       6.88      10.25      39.62
H       8.52       9.83      37.91
H      10.06      13.75      38.40
H       6.56      15.72       1.99
H       6.33      15.17      38.40
H       7.87      19.09      37.91
H       9.50      18.67      39.62
H       9.82      13.20       1.99
H      11.05      17.80       0.91
H      12.31      16.59       2.56
H       4.95      15.33       4.09
H      10.38      12.15      36.22
H      11.43      13.59       4.09
H       6.02      16.78      36.21
H      -8.45      19.09      16.06
H     -10.12      18.61      14.41
H      22.05      17.70      12.63
H      20.87      16.50      10.92
H      23.49      13.20      11.41
H      -6.75      15.24      15.48
H      -7.11      15.72      11.41
H      -4.48      12.43      10.92
H      -5.66      11.22      12.63
H      23.14      13.68      15.48
H      26.51      10.32      14.40
H      24.83       9.83      16.05
H      -6.28      16.83      17.58
H      21.94      13.73       9.23
H      22.67      12.09      17.58
H      -5.56      15.19       9.22
H       3.67      26.56      29.55
H       4.09      28.25      27.90
H      20.92       0.84      26.13
H      20.47       2.47      24.42
H      16.30       1.84      24.91
H      -0.51      27.01      28.98
H       0.08      27.08      24.91
H      -4.08      26.46      24.42
H      -4.53      28.08      26.12
H      16.89       1.91      28.98
H      12.30       0.67      27.90
H      12.71       2.37      29.55
H       0.64      25.81      31.08
H      17.53       2.92      22.72
H      15.75       3.11      31.08
H      -1.14      26.00      22.73
H      13.72       6.72      29.75
H      13.31       9.33      37.27
H      10.34      10.09      34.39
H      14.61       4.29      33.06
H      16.06       8.73      34.51
H      13.47      10.71      31.18
H      15.57      13.54       2.75
H      18.04      12.60      10.27
H      20.19      14.79       7.40
H      13.03      14.00       6.07
H      16.15      10.51       7.52
H      19.16      11.77       4.20
H      20.56       8.53      16.25
H      18.51       6.87      23.77
H      19.32       3.91      20.90
H      22.22      10.51      19.56
H      17.64       9.55      21.01
H      17.23       6.31      17.69
H       2.67      22.20      29.75
H       3.08      19.60      37.27
H       6.04      18.82      34.39
H       1.78      24.64      33.06
H       0.33      20.18      34.52
H       2.92      18.21      31.18
H       0.81      15.38       2.75
H      -1.65      16.33      10.27
H      -3.80      14.14       7.40
H       3.36      14.93       6.07
H       0.24      18.41       7.52
H      -2.77      17.15       4.19
H      -4.17      20.39      16.25
H      -2.13      22.06      23.77
H      -2.94      25.01      20.89
H      -5.84      18.42      19.56
H      -1.26      19.37      21.01
H      -0.84      22.62      17.69
C      25.04      14.46      13.48
C       9.36      14.89       0.80
C       9.72      16.21       0.49
C       8.85      16.69      40.01
C       7.94      15.68      39.67
C       6.98      15.92      38.66
C       6.92      17.18      38.02
C       7.86      18.18      38.38
C       8.83      17.95      39.38
C      10.80      16.84       1.13
C      11.53      16.12       2.09
C      11.20      14.78       2.41
C      10.09      14.17       1.77
C       7.03      14.03       0.80
C       6.67      12.72       0.49
C       7.53      12.23      40.00
C       8.44      13.24      39.66
C       7.56      10.98      39.38
C       8.53      10.74      38.38
C       9.46      11.74      38.02
C       9.41      13.00      38.66
C       6.29      14.75       1.77
C       5.19      14.14       2.41
C       4.86      12.80       2.09
C       5.59      12.08       1.13
C       8.19      14.46      40.47
C      10.34      11.51      36.98
C       4.47      14.82       3.38
C      11.92      14.10       3.38
C       6.04      17.42      36.98
C      24.83      13.24      14.29
C      25.79      12.27      13.99
C      -7.06      12.77      13.01
C      -7.47      14.07      12.67
C      -6.79      14.79      11.67
C      -5.67      14.20      11.03
C      -5.27      12.89      11.39
C      -5.95      12.17      12.38
C      25.80      11.02      14.63
C      24.81      10.74      15.59
C      23.81      11.70      15.91
C      23.84      12.96      15.26
C      -8.44      15.69      14.29
C      -9.41      16.65      13.99
C      23.44      16.15      13.01
C      23.86      14.86      12.67
C      22.34      16.75      12.39
C      21.65      16.04      11.39
C      22.05      14.72      11.03
C      23.17      14.14      11.67
C      -7.45      15.96      15.26
C      -7.43      17.22      15.91
C      -8.42      18.18      15.59
C      -9.41      17.90      14.63
C      21.41      14.08       9.99
C      -6.48      17.51      16.88
C      22.87      11.42      16.88
C      -5.02      14.85       9.99
C      15.66       0.67      27.79
C      14.34       0.32      27.48
C      -2.49      28.51      26.51
C      -1.17      28.23      26.17
C      -0.89      27.27      25.16
C      -1.95      26.60      24.52
C      -3.29      26.91      24.89
C      -3.57      27.86      25.88
C      13.26       0.94      28.12
C      13.51       1.93      29.08
C      14.84       2.31      29.41
C      15.92       1.66      28.76
C       0.72      28.26      27.79
C       2.04      28.61      27.48
C      18.88       0.41      26.51
C      17.55       0.70      26.17
C      19.95       1.06      25.88
C      19.68       2.02      24.89
C      18.34       2.33      24.52
C      17.27       1.65      25.16
C       0.46      27.26      28.76
C       1.54      26.61      29.40
C       2.87      26.99      29.08
C       3.13      27.99      28.12
C      -0.23      29.05      26.97
C      18.10       3.21      23.48
C       1.32      25.65      30.37
C      15.07       3.28      30.38
C      -1.72      25.71      23.48
C      14.26       5.35      31.25
C      14.36       5.19      32.65
C      13.60       7.44      33.04
C      13.51       7.66      31.64
C      13.82       6.60      30.76
C      13.12       8.33      34.04
C      13.67       8.48      35.35
C      12.96       9.25      36.31
C      11.75       9.88      35.97
C      11.25       9.72      34.67
C      14.89       7.93      35.74
C      13.12       8.87      31.07
C      14.12      13.76       4.26
C      13.93      13.75       5.65
C      16.26      13.29       6.05
C      16.50      13.26       4.64
C      15.42      13.51       3.77
C      17.28      13.26       7.05
C      17.13      12.71       8.36
C      18.14      12.95       9.31
C      19.30      13.67       8.98
C      19.41      14.18       7.67
C      16.04      11.93       8.75
C      17.73      12.99       4.08
C      21.47       9.68      17.75
C      21.56       9.85      19.15
C      19.99       8.07      19.55
C      19.85       7.87      18.14
C      20.61       8.68      17.26
C      19.46       7.20      20.55
C      19.06       7.60      21.85
C      18.75       6.60      22.81
C      18.81       5.24      22.48
C      19.19       4.89      21.17
C      18.93       8.93      22.24
C      19.00       6.94      17.58
C       2.13      23.57      31.25
C       2.02      23.73      32.65
C       2.79      21.49      33.04
C       2.88      21.26      31.64
C       2.56      22.32      30.76
C       3.27      20.59      34.04
C       2.72      20.44      35.35
C       3.43      19.68      36.31
C       4.64      19.04      35.97
C       5.13      19.20      34.66
C       1.50      21.00      35.74
C       3.27      20.06      31.07
C       2.27      15.16       4.26
C       2.46      15.17       5.65
C       0.13      15.63       6.05
C      -0.11      15.66       4.65
C       0.97      15.41       3.77
C      -0.89      15.66       7.05
C      -0.74      16.22       8.36
C      -1.76      15.98       9.31
C      -2.91      15.25       8.98
C      -3.02      14.74       7.67
C       0.35      16.99       8.75
C      -1.35      15.93       4.08
C      -5.08      19.24      17.75
C      -5.17      19.08      19.15
C      -3.61      20.86      19.54
C      -3.46      21.05      18.14
C      -4.22      20.24      17.26
C      -3.07      21.73      20.54
C      -2.67      21.32      21.85
C      -2.37      22.32      22.81
C      -2.42      23.69      22.47
C      -2.81      24.03      21.16
C      -2.54      19.99      22.24
C      -2.61      21.98      17.57
N      14.01       6.21      33.46
N      11.93       8.95      33.79
N      10.99      10.40      36.93
N      14.34       4.34      30.40
N      14.99      13.55       6.47
N      18.40      13.98       6.79
N      20.12      14.08       9.94
N      13.20      14.20       3.41
N      20.85       9.03      19.97
N      19.52       5.86      20.29
N      18.74       4.33      23.43
N      22.31      10.26      16.91
N       2.38      22.71      33.46
N       4.46      19.97      33.78
N       5.39      18.53      36.93
N       2.04      24.59      30.40
N       1.40      15.37       6.47
N      -2.01      14.94       6.79
N      -3.74      14.85       9.94
N       3.19      14.73       3.41
N      -4.47      19.89      19.97
N      -3.13      23.06      20.28
N      -2.36      24.60      23.43
N      -5.92      18.66      16.90
O      14.84       6.91      36.42
O      15.92       8.07      35.08
O      11.98       8.94      30.63
O      13.71       9.89      31.42
O      15.18      12.48       9.42
O      15.64      10.97       8.09
O      18.37      13.95       3.67
O      18.33      11.97       4.43
O      19.83       9.40      22.92
O      18.29       9.76      21.58
O      19.50       5.91      17.13
O      17.81       6.93      17.92
O       1.56      22.02      36.41
O       0.47      20.85      35.08
O       4.40      19.98      30.63
O       2.67      19.03      31.42
O       1.20      16.44       9.43
O       0.75      17.96       8.08
O      -1.98      14.98       3.64
O      -1.94      16.96       4.43
O      -3.45      19.53      22.92
O      -1.90      19.17      21.58
O      -3.12      23.02      17.16
O      -1.42      21.99      17.92
