32

S       3.85      -3.77       9.63
S       5.24       3.96      14.41
H       3.40      -1.11      10.33
H       6.60      -0.24      13.10
H       7.35      -2.58      12.94
H       3.20       0.90      10.08
H       2.42       3.22      10.34
H       5.47       1.33      13.74
O       5.52      -5.59      11.58
O       7.56      -4.74      11.60
O       3.01      -4.74      10.44
O       2.96      -2.86       8.88
O       4.89      -4.45       8.85
O       1.92       5.30      11.73
O       3.93       6.03      12.32
O       4.21       4.78      15.05
O       6.27       4.80      13.66
O       5.89       2.97      15.26
C       5.78      -3.17      11.58
C       4.68      -2.73      10.83
C       4.25      -1.41      10.93
C       4.90      -0.49      11.77
C       6.03      -0.93      12.48
C       6.47      -2.25      12.39
C       6.30      -4.57      11.57
C       4.42       0.91      11.88
C       3.54       1.48      10.94
C       3.12       2.80      11.07
C       3.59       3.63      12.10
C       4.47       3.06      13.05
C       4.84       1.72      12.95
C       3.13       5.05      12.07
