1020

H      30.23       2.88      30.80
H      22.21      16.76      30.80
H      26.15      10.07      46.31
H      29.86       3.76      33.40
H      18.13      23.96      46.31
H      21.84      17.64      33.40
H      25.66      10.72       1.27
H      17.65      24.60       1.27
H      24.42      12.50      31.64
H      16.40      26.38      31.64
H      29.65       5.17      46.48
H      21.63      19.05      46.48
H      27.18       9.22      32.76
H      19.16      23.11      32.76
H      28.63       3.09      40.74
H      25.09       9.47      38.97
H      24.94      11.47      42.09
H      20.61      16.97      40.74
H      17.08      23.35      38.97
H      16.92      25.35      42.09
H      37.12      21.40      45.87
H      36.86      23.76      45.85
H      36.22      21.31       2.27
H      36.00      23.67       2.26
H      38.03      25.62       1.91
H      40.19      26.63       1.76
H      39.53      27.48      45.40
H      37.40      26.45      45.54
H      19.44       0.18      46.71
H      18.17       0.78      44.79
H      24.90      10.67      44.39
H      20.38       0.03       1.59
H      19.27       0.78       3.54
H      24.54      11.49       3.22
H      40.04      26.61      14.07
H      42.21      25.65      14.04
H      40.44      27.42      18.19
H      42.59      26.42      18.18
H      43.25      23.67      17.83
H      43.03      21.30      17.67
H      44.07      21.47      13.59
H      44.25      23.83      13.73
H      22.48      10.86      14.90
H      23.64      11.66      12.97
H      28.84       0.89      12.58
H      27.70       0.11      14.50
H      28.53       0.18      17.18
H      21.90      10.09      17.51
H      23.10      10.67      19.46
H      29.76       0.77      19.13
H      43.09      21.47      29.96
H      41.18      20.06      29.94
H      43.59      20.73      34.08
H      41.65      19.36      34.07
H      38.94      20.14      33.73
H      37.00      21.50      33.57
H      36.62      20.51      29.49
H      38.58      19.18      29.63
H      30.35       1.47      28.88
H      18.42       2.36      28.48
H      18.31       3.74      30.40
H      17.96       3.00      33.08
H      29.76       2.43      35.36
H      17.86       1.64      35.04
H      28.90       1.51      41.49
H      36.54      15.51      39.75
H      23.87      10.48      38.20
H      31.74      23.94      39.93
H      38.43      15.93      37.66
H      20.41       1.46       8.92
H      18.90       2.02       9.66
H      19.19       2.27       7.92
H      27.70       1.29       7.15
H      29.19       1.85       6.37
H      28.89       2.19       8.10
H      18.62       0.41       5.85
H      29.51       0.46      10.28
H      15.10      23.25      24.84
H      24.35      10.39      25.59
H      16.42      23.89      23.85
H      11.34      17.00      23.06
H      19.09       1.55      22.29
H      11.52      15.52      24.02
H      15.10      25.32      21.76
H      17.71       1.99      26.18
H      46.38      26.75       0.87
H      30.68       0.40      47.55
H      45.38      27.04      47.17
H      24.91       6.05      46.37
H      25.67       5.61       0.17
H      24.55       4.50      47.14
H      42.48      27.39       0.94
H      40.04      15.86      16.74
H       9.04      14.89      15.71
H      40.78      16.61      15.32
H      24.82       3.24      14.60
H      24.07       2.77      16.13
H      23.65       4.33      15.36
H      42.53      18.94      16.85
H      37.70      27.28      14.73
H      33.79      26.81      32.68
H      32.43      26.38      31.64
H      34.07      25.80      31.26
H      22.41       4.68      30.46
H      22.37       5.56      31.99
H      23.93       5.14      31.23
H      35.19      23.11      32.76
H      20.81       9.23      30.57
H      13.08       7.52      45.87
H      12.81       9.88      45.85
H      12.17       7.42       2.27
H      11.95       9.79       2.26
H      13.99      11.74       1.91
H      16.14      12.75       1.76
H      15.48      13.60      45.40
H      13.36      12.56      45.54
H      11.42      14.07      46.71
H      10.15      14.66      44.79
H      16.89      24.55      44.39
H      12.36      13.92       1.59
H      11.26      14.67       3.54
H      16.53      25.37       3.22
H      15.99      12.73      14.07
H      18.16      11.76      14.04
H      16.39      13.54      18.19
H      18.54      12.54      18.18
H      19.20       9.79      17.83
H      18.98       7.42      17.67
H      20.03       7.59      13.59
H      20.21       9.95      13.73
H      14.47      24.75      14.90
H      15.62      25.54      12.97
H      20.83      14.77      12.58
H      19.69      14.00      14.50
H      20.51      14.07      17.18
H      13.88      23.98      17.51
H      15.09      24.56      19.46
H      21.74      14.65      19.13
H      19.04       7.58      29.96
H      17.13       6.18      29.94
H      19.54       6.85      34.08
H      17.61       5.47      34.07
H      14.90       6.26      33.73
H      12.95       7.62      33.57
H      12.57       6.63      29.49
H      14.53       5.30      29.63
H      22.33      15.36      28.88
H      10.40      16.24      28.48
H      10.29      17.62      30.40
H       9.95      16.88      33.08
H      21.75      16.31      35.36
H       9.84      15.53      35.04
H      20.88      15.39      41.49
H      12.49       1.63      39.75
H      15.86      24.37      38.20
H       7.70      10.06      39.93
H      14.38       2.05      37.66
H      12.39      15.35       8.92
H      10.89      15.90       9.66
H      11.18      16.16       7.92
H      19.68      15.18       7.15
H      21.17      15.73       6.37
H      20.88      16.08       8.10
H      10.60      14.29       5.85
H      21.50      14.34      10.28
H      23.12       9.37      24.84
H      16.33      24.28      25.59
H      24.43      10.01      23.85
H      19.36       3.12      23.06
H      11.07      15.43      22.29
H      19.53       1.64      24.02
H      23.12      11.43      21.76
H       9.69      15.87      26.18
H      22.33      12.87       0.87
H      22.67      14.29      47.55
H      21.34      13.16      47.17
H      16.90      19.93      46.37
H      17.66      19.49       0.17
H      16.53      18.38      47.14
H      18.43      13.51       0.94
H      15.99       1.98      16.74
H      17.05       1.01      15.71
H      16.74       2.73      15.32
H      16.80      17.13      14.60
H      16.06      16.66      16.13
H      15.63      18.21      15.36
H      18.49       5.05      16.85
H      13.65      13.40      14.73
H      17.19      25.81      32.68
H       8.38      12.50      31.64
H      10.03      11.91      31.26
H      14.40      18.57      30.46
H      14.36      19.45      31.99
H      15.92      19.02      31.23
H      11.15       9.22      32.76
H      44.86      23.11      30.57
H      29.11       7.52      45.87
H      28.85       9.88      45.85
H      28.21       7.42       2.27
H      27.98       9.79       2.26
H      30.02      11.74       1.91
H      32.17      12.75       1.76
H      31.51      13.60      45.40
H      29.39      12.56      45.54
H      27.45      14.07      46.71
H      26.18      14.66      44.79
H      32.92      24.55      44.39
H      34.16      23.96      46.31
H      33.68      24.60       1.27
H      28.39      13.92       1.59
H      27.29      14.67       3.54
H      32.56      25.37       3.22
H      32.02      12.73      14.07
H      34.19      11.76      14.04
H      32.42      13.54      18.19
H      34.57      12.54      18.18
H      35.23       9.79      17.83
H      35.01       7.42      17.67
H      36.06       7.59      13.59
H      36.24       9.95      13.73
H      30.50      24.75      14.90
H      31.65      25.54      12.97
H      36.86      14.77      12.58
H      35.72      14.00      14.50
H      36.55      14.07      17.18
H      29.91      23.98      17.51
H      31.12      24.56      19.46
H      37.78      14.65      19.13
H      35.07       7.58      29.96
H      33.16       6.18      29.94
H      35.57       6.85      34.08
H      33.64       5.47      34.07
H      30.93       6.26      33.73
H      28.98       7.62      33.57
H      28.61       6.63      29.49
H      30.56       5.30      29.63
H      38.25      16.76      30.80
H      38.36      15.36      28.88
H      26.43      16.24      28.48
H      26.33      17.62      30.40
H      25.98      16.88      33.08
H      37.87      17.64      33.40
H      37.78      16.31      35.36
H      25.87      15.53      35.04
H      36.64      16.97      40.74
H      36.91      15.39      41.49
H      28.52       1.63      39.75
H      33.11      23.35      38.97
H      31.89      24.37      38.20
H      23.73      10.06      39.93
H      30.42       2.05      37.66
H      32.95      25.35      42.09
H      28.42      15.35       8.92
H      26.92      15.90       9.66
H      27.21      16.16       7.92
H      35.72      15.18       7.15
H      37.20      15.73       6.37
H      36.91      16.08       8.10
H      26.63      14.29       5.85
H      37.53      14.34      10.28
H       7.09       9.37      24.84
H      32.36      24.28      25.59
H       8.40      10.01      23.85
H       3.33       3.12      23.06
H      27.11      15.43      22.29
H       3.50       1.64      24.02
H       7.09      11.43      21.76
H      25.72      15.87      26.18
H      38.36      12.87       0.87
H      38.70      14.29      47.55
H      37.37      13.16      47.17
H      32.93      19.93      46.37
H      33.69      19.49       0.17
H      32.56      18.38      47.14
H      34.46      13.51       0.94
H      37.66      19.05      46.48
H      32.02       1.98      16.74
H       1.02       1.01      15.71
H      32.77       2.73      15.32
H      32.84      17.13      14.60
H      32.09      16.66      16.13
H      31.66      18.21      15.36
H      34.52       5.05      16.85
H      29.68      13.40      14.73
H      25.78      12.92      32.68
H      26.06      11.91      31.26
H      30.43      18.57      30.46
H      30.39      19.45      31.99
H      31.95      19.02      31.23
H      28.82      23.11      30.57
H      21.09      21.40      45.87
H      20.83      23.76      45.85
H      20.19      21.31       2.27
H      19.97      23.67       2.26
H      22.00      25.62       1.91
H      24.15      26.63       1.76
H      23.50      27.48      45.40
H      21.37      26.45      45.54
H       3.41       0.18      46.71
H       2.14       0.78      44.79
H       8.87      10.67      44.39
H      10.12      10.07      46.31
H       9.63      10.72       1.27
H       4.35       0.03       1.59
H       3.24       0.78       3.54
H       8.51      11.49       3.22
H      24.00      26.61      14.07
H      26.17      25.65      14.04
H      24.41      27.42      18.19
H      26.56      26.42      18.18
H      27.22      23.67      17.83
H      27.00      21.30      17.67
H      28.04      21.47      13.59
H      28.22      23.83      13.73
H       6.45      10.86      14.90
H       7.61      11.66      12.97
H      12.81       0.89      12.58
H      11.67       0.11      14.50
H      12.50       0.18      17.18
H       5.87      10.09      17.51
H       7.07      10.67      19.46
H      13.73       0.77      19.13
H      27.06      21.47      29.96
H      25.15      20.06      29.94
H      27.55      20.73      34.08
H      25.62      19.36      34.07
H      22.91      20.14      33.73
H      20.96      21.50      33.57
H      20.59      20.51      29.49
H      22.55      19.18      29.63
H      14.20       2.88      30.80
H      14.31       1.47      28.88
H       2.38       2.36      28.48
H       2.28       3.74      30.40
H       1.93       3.00      33.08
H      13.82       3.76      33.40
H      13.73       2.43      35.36
H       1.83       1.64      35.04
H      12.60       3.09      40.74
H      12.87       1.51      41.49
H      20.51      15.51      39.75
H       9.06       9.47      38.97
H       7.84      10.48      38.20
H      15.71      23.94      39.93
H      22.40      15.93      37.66
H       8.91      11.47      42.09
H       4.38       1.46       8.92
H       2.87       2.02       9.66
H       3.16       2.27       7.92
H      11.67       1.29       7.15
H      13.16       1.85       6.37
H      12.86       2.19       8.10
H       2.59       0.41       5.85
H      13.48       0.46      10.28
H      31.13      23.25      24.84
H       8.32      10.39      25.59
H      32.45      23.89      23.85
H      27.37      17.00      23.06
H       3.06       1.55      22.29
H      27.55      15.52      24.02
H      31.13      25.32      21.76
H       1.68       1.99      26.18
H      30.35      26.75       0.87
H      14.65       0.40      47.55
H      29.35      27.04      47.17
H       8.88       6.05      46.37
H       9.64       5.61       0.17
H       8.52       4.50      47.14
H      26.44      27.39       0.94
H      13.62       5.17      46.48
H      24.00      15.86      16.74
H      25.07      14.89      15.71
H      24.75      16.61      15.32
H       8.79       3.24      14.60
H       8.04       2.77      16.13
H       7.62       4.33      15.36
H      26.50      18.94      16.85
H      21.67      27.28      14.73
H      17.76      26.81      32.68
H      18.04      25.80      31.26
H       6.38       4.68      30.46
H       6.34       5.56      31.99
H       7.90       5.14      31.23
H      36.84       9.23      30.57
C      25.44      11.39      44.87
C      17.43      25.28      44.87
C      31.42       0.63      38.75
C      24.48      12.58      39.71
C      24.20      13.06      41.01
C      31.13       1.37      37.62
C      24.67      12.43      42.15
C      26.75       8.70      32.03
C      23.41      14.51      38.75
C      16.46      26.47      39.71
C      16.19      26.94      41.01
C      23.12      15.25      37.62
C      16.66      26.31      42.15
C      18.73      22.58      32.03
C      29.04       5.00      47.24
C      21.02      18.88      47.24
C      31.08       1.06      40.05
C      23.07      14.95      40.05
C      25.36      12.00       2.89
C      17.34      25.89       2.89
C      31.20       1.94      29.20
C      23.18      15.83      29.20
C      30.66       2.56      34.90
C      22.65      16.44      34.90
C      29.05       2.10      40.58
C      24.43      10.32      39.13
C      31.26       0.30       9.20
C      30.48       0.21      10.33
C      15.83      26.90      22.85
C      15.34      26.28      21.72
C      21.04      15.98      40.58
C      16.41      24.20      39.13
C      23.24      14.18       9.20
C      22.46      14.09      10.33
C      23.85      13.02      22.85
C      23.35      12.40      21.72
C      33.86      27.00       3.61
C      34.96      27.70       3.08
C      35.63      27.24       1.93
C      35.25      26.04       1.28
C      34.04      25.43       1.74
C      36.00      25.46       0.07
C      35.06      25.86      46.65
C      34.22      24.92      46.00
C      33.48      26.60      44.37
C      34.18      27.58      45.11
C      34.93      27.21      46.24
C      37.44      26.04      47.63
C      36.29      23.96       0.17
C      36.75      23.28      46.74
C      36.93      21.88      46.75
C      36.72      21.12       0.22
C      36.39      21.82       1.40
C      36.22      23.21       1.38
C      38.33      25.98       1.00
C      39.61      26.56       0.91
C      40.07      27.15      47.42
C      39.23      27.07      46.30
C      37.96      26.49      46.39
C      46.54      26.59      19.52
C      22.55      11.40      19.00
C      45.86      24.94      17.85
C      45.01      25.87      17.19
C      45.09      27.21      17.65
C      45.83      27.57      18.80
C      44.13      25.51      15.99
C      44.93      26.14      14.84
C      44.54      27.35      14.19
C      29.20       0.06      13.05
C      46.36      27.14      12.56
C      46.85      26.05      13.29
C      46.16      25.58      14.43
C      43.89      24.01      15.82
C      42.69      26.02      16.08
C      41.84      25.98      14.94
C      40.55      26.53      14.95
C      40.02      27.08      16.14
C      40.79      27.01      17.31
C      42.08      26.45      17.29
C      43.41      23.23      16.92
C      43.25      21.84      16.83
C      43.51      21.17      15.61
C      43.87      21.93      14.49
C      44.02      23.33      14.58
C      39.84      15.84      35.42
C      38.75      17.25      33.75
C      39.98      17.52      33.09
C      41.10      16.78      33.55
C      17.00       2.09      34.70
C      40.10      18.46      31.89
C      40.26      17.45      30.74
C      41.49      17.18      30.09
C      17.52       2.47      28.96
C      40.41      15.71      28.46
C      39.21      15.83      29.20
C      39.15      16.66      30.33
C      38.92      19.42      31.72
C      41.26      19.46      31.98
C      41.65      20.21      30.83
C      42.77      21.06      30.84
C      43.50      21.26      32.03
C      43.06      20.62      33.21
C      41.94      19.78      33.19
C      38.48      20.22      32.82
C      37.34      21.04      32.73
C      36.64      21.14      31.51
C      37.12      20.46      30.39
C      38.26      19.64      30.48
C      16.88       0.25       6.94
C      30.71       0.29       7.89
C      17.43       0.33       8.24
C      19.34       1.59       8.76
C      28.77       1.45       7.30
C      17.66       0.13       5.81
C       8.96      14.91      23.80
C       8.68      14.44      25.10
C      15.63      26.39      24.15
C      15.75      24.12      24.68
C      10.94      16.00      23.22
C       9.00      15.16      26.24
C      27.02       1.38      47.67
C      27.07       3.64      46.85
C      28.39       3.79      47.33
C      28.34       1.50       0.40
C      45.91      27.51       0.25
C      25.34       5.23      46.95
C      26.20       0.25       0.21
C      19.72       3.71      15.86
C      21.66       2.55      15.06
C      21.13       1.33      15.53
C      19.18       2.48      16.31
C      40.94      15.89      16.13
C      23.90       3.28      15.18
C      19.15       4.95      16.12
C      21.86       0.17      15.45
C      25.40       8.84      31.76
C      23.42       7.76      30.94
C      22.63       8.83      31.42
C      24.60       9.92      32.22
C      33.37      26.02      32.06
C      22.91       5.46      31.04
C      21.26       8.78      31.33
C       9.81      13.11       3.61
C      10.91      13.82       3.08
C      11.58      13.36       1.93
C      11.20      12.15       1.28
C      10.00      11.55       1.74
C      11.95      11.57       0.07
C      11.02      11.98      46.65
C      10.17      11.04      46.00
C       9.44      12.71      44.37
C      10.13      13.69      45.11
C      10.89      13.33      46.24
C      13.39      12.15      47.63
C      12.24      10.07       0.17
C      12.71       9.39      46.74
C      12.89       8.00      46.75
C      12.67       7.24       0.22
C      12.34       7.93       1.40
C      12.17       9.33       1.38
C      14.28      12.10       1.00
C      15.57      12.67       0.91
C      16.02      13.27      47.42
C      15.19      13.19      46.30
C      13.91      12.61      46.39
C      22.49      12.71      19.52
C      46.59      25.28      19.00
C      21.81      11.05      17.85
C      20.96      11.99      17.19
C      21.05      13.33      17.65
C      21.78      13.68      18.80
C      20.08      11.63      15.99
C      20.88      12.26      14.84
C      20.50      13.47      14.19
C      21.18      13.94      13.05
C      22.31      13.26      12.56
C      22.81      12.16      13.29
C      22.12      11.69      14.43
C      19.84      10.12      15.82
C      18.64      12.13      16.08
C      17.80      12.10      14.94
C      16.50      12.65      14.95
C      15.98      13.20      16.14
C      16.75      13.13      17.31
C      18.04      12.57      17.29
C      19.36       9.35      16.92
C      19.21       7.95      16.83
C      19.47       7.29      15.61
C      19.83       8.05      14.49
C      19.97       9.44      14.58
C      15.80       1.95      35.42
C      14.70       3.36      33.75
C      15.93       3.64      33.09
C      17.06       2.90      33.55
C      41.05      15.98      34.70
C      16.06       4.58      31.89
C      16.21       3.57      30.74
C      17.44       3.30      30.09
C       9.50      16.35      28.96
C      16.36       1.83      28.46
C      15.17       1.94      29.20
C      15.10       2.78      30.33
C      14.87       5.53      31.72
C      17.21       5.58      31.98
C      17.60       6.32      30.83
C      18.72       7.18      30.84
C      19.45       7.37      32.03
C      19.01       6.74      33.21
C      17.89       5.89      33.19
C      14.43       6.34      32.82
C      13.30       7.16      32.73
C      12.59       7.26      31.51
C      13.07       6.57      30.39
C      14.21       5.76      30.48
C       8.86      14.13       6.94
C      22.69      14.17       7.89
C       9.41      14.22       8.24
C      11.32      15.47       8.76
C      20.75      15.34       7.30
C       9.65      14.01       5.81
C      16.97       1.03      23.80
C      16.70       0.55      25.10
C      23.64      12.51      24.15
C      23.76      10.24      24.68
C      18.96       2.11      23.22
C      17.01       1.28      26.24
C      19.00      15.27      47.67
C      19.06      17.52      46.85
C      20.38      17.67      47.33
C      20.32      15.38       0.40
C      21.86      13.63       0.25
C      17.32      19.11      46.95
C      18.19      14.14       0.21
C      11.70      17.59      15.86
C      13.65      16.43      15.06
C      13.11      15.21      15.53
C      11.16      16.36      16.31
C      16.89       2.01      16.13
C      15.88      17.16      15.18
C      11.14      18.83      16.12
C      13.84      14.05      15.45
C      17.38      22.72      31.76
C      15.40      21.64      30.94
C      14.61      22.71      31.42
C      16.59      23.80      32.22
C       9.32      12.13      32.06
C      14.89      19.34      31.04
C      13.25      22.67      31.33
C      25.84      13.11       3.61
C      26.95      13.82       3.08
C      27.61      13.36       1.93
C      27.23      12.15       1.28
C      26.03      11.55       1.74
C      33.37      25.89       2.89
C      27.98      11.57       0.07
C      27.05      11.98      46.65
C      26.20      11.04      46.00
C      33.46      25.28      44.87
C      25.47      12.71      44.37
C      26.16      13.69      45.11
C      26.92      13.33      46.24
C      29.42      12.15      47.63
C      28.27      10.07       0.17
C      28.74       9.39      46.74
C      28.92       8.00      46.75
C      28.70       7.24       0.22
C      28.37       7.93       1.40
C      28.20       9.33       1.38
C      30.32      12.10       1.00
C      31.60      12.67       0.91
C      32.06      13.27      47.42
C      31.22      13.19      46.30
C      29.94      12.61      46.39
C      38.52      12.71      19.52
C      30.56      25.28      19.00
C      37.84      11.05      17.85
C      36.99      11.99      17.19
C      37.08      13.33      17.65
C      37.81      13.68      18.80
C      36.11      11.63      15.99
C      36.91      12.26      14.84
C      36.53      13.47      14.19
C      37.21      13.94      13.05
C      38.34      13.26      12.56
C      38.84      12.16      13.29
C      38.15      11.69      14.43
C      35.87      10.12      15.82
C      34.67      12.13      16.08
C      33.83      12.10      14.94
C      32.53      12.65      14.95
C      32.01      13.20      16.14
C      32.78      13.13      17.31
C      34.07      12.57      17.29
C      35.39       9.35      16.92
C      35.24       7.95      16.83
C      35.50       7.29      15.61
C      35.86       8.05      14.49
C      36.00       9.44      14.58
C      31.83       1.95      35.42
C      38.68      16.44      34.90
C      30.73       3.36      33.75
C      31.96       3.64      33.09
C      33.09       2.90      33.55
C      25.02      15.98      34.70
C      32.09       4.58      31.89
C      32.24       3.57      30.74
C      33.47       3.30      30.09
C      25.53      16.35      28.96
C      32.39       1.83      28.46
C      31.13       2.78      30.33
C      30.90       5.53      31.72
C      33.24       5.58      31.98
C      33.64       6.32      30.83
C      34.75       7.18      30.84
C      35.48       7.37      32.03
C      35.05       6.74      33.21
C      33.92       5.89      33.19
C      30.47       6.34      32.82
C      29.33       7.16      32.73
C      28.62       7.26      31.51
C      29.11       6.57      30.39
C      30.25       5.76      30.48
C      39.44      14.51      38.75
C      32.49      26.47      39.71
C      32.22      26.94      41.01
C      39.10      14.95      40.05
C      37.07      15.98      40.58
C      32.44      24.20      39.13
C      39.15      15.25      37.62
C      32.69      26.31      42.15
C      24.90      14.13       6.94
C      38.72      14.17       7.89
C      39.27      14.18       9.20
C      25.44      14.22       8.24
C      27.35      15.47       8.76
C      36.78      15.34       7.30
C      25.68      14.01       5.81
C      38.49      14.09      10.33
C       7.82      13.02      22.85
C       0.94       1.03      23.80
C       0.67       0.55      25.10
C       7.61      12.51      24.15
C       7.73      10.24      24.68
C       2.93       2.11      23.22
C       7.32      12.40      21.72
C       0.98       1.28      26.24
C      35.03      15.27      47.67
C      35.09      17.53      46.85
C      36.41      17.67      47.33
C      36.35      15.38       0.40
C      37.89      13.63       0.25
C      33.35      19.11      46.95
C      34.22      14.14       0.21
C      37.05      18.88      47.24
C      27.73      17.59      15.86
C      29.68      16.43      15.06
C      29.14      15.21      15.53
C      27.19      16.36      16.31
C      32.93       2.01      16.13
C      31.91      17.16      15.18
C      27.17      18.83      16.12
C      29.87      14.05      15.45
C      33.41      22.72      31.76
C      31.43      21.64      30.94
C      30.64      22.71      31.42
C      32.62      23.80      32.22
C      25.35      12.13      32.06
C      30.92      19.34      31.04
C      34.77      22.58      32.03
C      29.28      22.67      31.33
C      17.83      27.00       3.61
C      18.93      27.70       3.08
C      19.60      27.24       1.93
C      19.22      26.04       1.28
C      18.01      25.43       1.74
C       9.33      12.00       2.89
C      19.97      25.46       0.07
C      19.03      25.86      46.65
C      18.18      24.93      46.00
C       9.41      11.39      44.87
C      17.45      26.60      44.37
C      18.15      27.58      45.11
C      18.90      27.21      46.24
C      21.41      26.04      47.63
C      20.26      23.96       0.17
C      20.72      23.28      46.74
C      20.90      21.88      46.75
C      20.69      21.12       0.22
C      20.36      21.82       1.40
C      20.19      23.21       1.38
C      22.30      25.98       1.00
C      23.58      26.56       0.91
C      24.04      27.15      47.42
C      23.20      27.07      46.30
C      21.93      26.49      46.39
C      30.51      26.59      19.52
C      38.58      11.40      19.00
C      29.83      24.94      17.85
C      28.98      25.87      17.19
C      29.06      27.21      17.65
C      29.79      27.57      18.80
C      28.10      25.51      15.99
C      28.90      26.14      14.84
C      28.51      27.35      14.19
C      13.17       0.06      13.05
C      30.33      27.14      12.56
C      30.82      26.05      13.29
C      30.13      25.58      14.43
C      27.86      24.01      15.82
C      26.66      26.02      16.08
C      25.81      25.98      14.94
C      24.52      26.53      14.95
C      23.99      27.08      16.14
C      24.76      27.01      17.31
C      26.05      26.45      17.29
C      27.38      23.23      16.92
C      27.22      21.84      16.83
C      27.48      21.17      15.61
C      27.84      21.93      14.49
C      27.98      23.33      14.58
C      23.81      15.84      35.42
C      14.63       2.56      34.90
C      22.72      17.25      33.75
C      23.95      17.52      33.09
C      25.07      16.78      33.55
C      33.03       2.09      34.70
C      24.07      18.46      31.89
C      24.23      17.45      30.74
C      25.46      17.18      30.09
C       1.49       2.47      28.96
C      24.38      15.71      28.46
C      23.12      16.66      30.33
C      22.89      19.42      31.72
C      25.23      19.46      31.98
C      25.62      20.21      30.83
C      26.73      21.06      30.84
C      27.47      21.26      32.03
C      27.03      20.62      33.21
C      25.91      19.78      33.19
C      22.45      20.22      32.82
C      21.31      21.04      32.73
C      20.61      21.14      31.51
C      21.09      20.46      30.39
C      22.23      19.64      30.48
C      15.39       0.63      38.75
C       8.45      12.58      39.71
C       8.17      13.06      41.01
C      15.05       1.06      40.05
C      13.02       2.10      40.58
C       8.39      10.32      39.13
C      15.10       1.37      37.62
C       8.64      12.43      42.15
C       0.85       0.25       6.94
C      14.68       0.29       7.89
C      15.23       0.30       9.20
C       1.40       0.33       8.24
C       3.30       1.59       8.76
C      12.74       1.45       7.30
C       1.63       0.13       5.81
C      14.44       0.21      10.33
C      31.87      26.90      22.85
C      24.99      14.91      23.80
C      24.71      14.44      25.10
C      31.66      26.39      24.15
C      31.78      24.12      24.68
C      26.97      16.00      23.22
C      31.37      26.28      21.72
C      25.03      15.16      26.24
C      10.99       1.38      47.67
C      11.04       3.64      46.85
C      12.36       3.79      47.33
C      12.30       1.50       0.40
C      29.88      27.51       0.25
C       9.31       5.23      46.95
C      10.17       0.25       0.21
C      13.01       5.00      47.24
C       3.69       3.71      15.86
C       5.63       2.55      15.06
C       5.10       1.33      15.53
C       3.15       2.48      16.31
C      24.91      15.89      16.13
C       7.86       3.28      15.18
C       3.12       4.95      16.12
C       5.83       0.17      15.45
C       9.37       8.84      31.76
C       7.39       7.76      30.94
C       6.60       8.83      31.42
C       8.57       9.92      32.22
C      17.34      26.02      32.06
C       6.88       5.46      31.04
C      10.72       8.70      32.03
C       5.23       8.78      31.33
N      28.54       5.92       0.22
N      27.41       7.78      31.42
N      20.53      19.81       0.22
N      19.39      21.66      31.42
N      24.10      13.34      38.64
N      31.52       0.34      41.12
N      16.08      27.23      38.64
N      23.51      14.22      41.12
N      31.55       0.23       6.83
N      16.03      27.14      25.21
N      23.54      14.11       6.83
N      24.05      13.25      25.21
N      24.92      13.09      43.22
N      16.90      26.97      43.22
N      23.06      13.08      20.66
N      46.96      27.43      11.41
N      31.87       1.28      36.57
N      47.11      26.96      20.66
N      22.91      13.55      11.41
N      23.85      15.16      36.57
N      36.56      19.81       0.22
N      25.09       0.18      47.33
N      33.25      27.30       4.75
N      22.94       0.12      16.14
N      11.61      19.86      15.52
N      12.65      21.77      32.04
N      35.42      21.66      31.42
N      16.31       1.16      27.31
N      16.58       0.32       9.30
N       8.49      14.20      22.74
N      26.46       2.45      47.05
N      28.96       2.70       0.23
N      20.93       3.67      15.25
N      19.91       1.34      16.14
N      24.75       7.82      31.14
N      23.25       9.86      32.04
N      12.51       5.92       0.22
N      17.08      14.06      47.33
N       9.21      13.42       4.75
N      14.93      14.00      16.14
N      19.63       5.98      15.52
N      20.67       7.89      32.04
N      11.38       7.78      31.42
N      40.36      15.05      27.31
N       8.57      14.20       9.30
N      16.50       0.32      22.74
N      18.44      16.34      47.05
N      20.94      16.58       0.23
N      12.92      17.55      15.25
N      11.90      15.23      16.14
N      16.74      21.70      31.14
N      15.24      23.74      32.04
N      33.11      14.06      47.33
N      25.24      13.42       4.75
N      32.93      26.97      43.22
N      30.96      14.00      16.14
N       3.59       5.98      15.52
N      31.07      26.96      20.66
N      38.94      13.55      11.41
N       4.64       7.89      32.04
N      39.88      15.16      36.57
N      24.33      15.04      27.31
N      32.12      27.23      38.64
N      39.54      14.22      41.12
N      39.57      14.11       6.83
N      24.60      14.20       9.30
N       0.47       0.32      22.74
N       8.02      13.25      25.21
N      34.47      16.34      47.05
N      36.97      16.58       0.23
N      28.95      17.55      15.25
N      27.93      15.23      16.14
N      32.77      21.70      31.14
N      31.27      23.74      32.04
N       9.06       0.18      47.33
N      17.22      27.30       4.75
N       8.89      13.09      43.22
N       6.91       0.12      16.14
N      27.64      19.86      15.52
N      39.09      13.08      20.66
N      30.93      27.43      11.41
N      28.69      21.77      32.04
N      15.84       1.28      36.57
N      32.34       1.16      27.31
N       8.07      13.34      38.64
N      15.49       0.34      41.12
N      15.52       0.23       6.83
N       0.55       0.32       9.30
N      24.52      14.20      22.74
N      32.06      27.14      25.21
N      10.42       2.45      47.05
N      12.93       2.70       0.23
N       4.90       3.67      15.25
N       3.88       1.34      16.14
N       8.72       7.82      31.14
N       7.22       9.86      32.04
O      30.45       2.25      40.29
O      25.22      11.46      39.47
O      22.44      16.14      40.29
O      17.21      25.34      39.47
O      18.78       0.29       8.47
O      29.36       0.20       7.66
O      14.91      25.25      24.39
O       9.55      16.12      23.56
O      28.99       0.51       1.09
O      26.41       4.65      46.19
O      17.99       2.40      16.98
O      22.87       2.62      14.41
O      25.14      10.98      32.90
O      22.88       6.68      30.28
O      10.76      14.17       8.47
O      21.35      14.08       7.66
O      22.93      11.37      24.39
O      17.57       2.24      23.56
O      20.97      14.39       1.09
O      18.40      18.53      46.19
O       9.97      16.28      16.98
O      14.85      16.51      14.41
O      17.12      24.86      32.90
O      14.86      20.56      30.28
O      38.47      16.14      40.29
O      33.24      25.34      39.47
O      26.79      14.17       8.47
O      37.38      14.08       7.66
O       6.90      11.37      24.39
O       1.54       2.24      23.56
O      37.00      14.39       1.09
O      34.43      18.53      46.19
O      26.00      16.28      16.98
O      30.88      16.51      14.41
O      33.15      24.86      32.90
O      30.89      20.57      30.28
O      14.42       2.25      40.29
O       9.19      11.46      39.47
O       2.75       0.29       8.47
O      13.33       0.20       7.66
O      30.94      25.25      24.39
O      25.58      16.12      23.56
O      12.96       0.51       1.09
O      10.38       4.65      46.19
O       1.96       2.40      16.98
O       6.84       2.62      14.41
O       9.10      10.98      32.90
O       6.85       6.68      30.28
