19

N      19.39       5.83      28.93
N      19.22       5.55      30.22
N      19.27       6.67      30.96
H      20.10      11.65      30.49
H      21.10      11.72      29.03
H      19.36      11.97      28.90
H      20.32       9.68      25.79
H      19.57      11.06      26.63
H      21.29      10.74      26.84
H      19.91       7.56      26.69
H      19.64       9.51      31.33
C      20.13      11.39      29.43
C      20.31      10.25      26.73
C      20.00       9.35      27.90
C      19.92       9.91      29.23
C      19.49       7.72      30.11
C      19.56       7.18      28.80
C      19.81       7.99      27.69
C      19.67       9.10      30.33
