19

H      15.29      13.11      10.57
N      11.52      15.27       9.81
C      14.87      14.60       6.12
N      12.73      14.20      11.31
N      11.59      14.87      11.08
C      13.11      15.01       7.86
C      14.34      14.45       7.52
C      13.43      14.16      10.14
C      16.45      13.15       8.11
C      12.66      14.85       9.18
C      14.68      13.61       9.81
C      15.12      13.75       8.51
H      14.18      15.18       5.49
H      15.03      13.63       5.64
H      15.84      15.12       6.12
H      12.51      15.55       7.13
H      16.99      12.81       8.99
H      17.08      13.88       7.59
H      16.32      12.30       7.42
