19

C      13.70       1.49      19.93
C      14.31       0.46      19.02
N      10.84       2.23      22.19
C      11.97       2.20      21.42
N      11.92       4.12      22.56
N      10.84       3.39      22.87
H      16.08       4.00      19.67
H      16.49       2.28      19.81
H      15.64       2.85      18.38
H      14.39       4.64      21.20
H      11.97       0.28      20.42
H      13.69      -0.45      18.99
H      14.42       0.83      17.99
H      15.32       0.17      19.36
C      14.40       2.73      20.16
C      15.72       2.98      19.47
C      12.66       3.41      21.65
C      13.88       3.69      21.01
C      12.49       1.22      20.55
