19

C      16.34       5.17      33.79
C      15.66       3.98      33.47
H      13.44       6.38      36.96
H      14.49       7.67      36.30
H      12.91       7.31      35.56
H      13.85       2.80      33.67
H      16.28       7.04      34.89
H      11.90       3.58      34.74
H      12.33       4.25      36.33
H      11.72       5.32      35.07
C      13.80       6.86      36.03
C      14.36       3.71      33.94
C      13.76       4.67      34.75
C      14.47       5.87      35.12
C      15.75       6.13      34.64
C      12.36       4.44      35.25
N      16.48       3.27      32.63
N      17.59       3.99      32.45
N      17.54       5.14      33.13
