13

N       2.45      18.68      10.01
N       3.24      18.44      11.13
Cu       3.41      19.42       8.41
N       2.56      18.92       5.69
N       3.04      18.25       6.82
C       5.94      20.23       9.72
C       1.13      18.45      10.02
N       5.38      19.46       8.78
N       6.16      18.60       8.00
C       3.27      16.94       6.81
C       3.34      22.08       7.10
N       2.79      21.30       8.04
N       1.72      21.74       8.82
