544

H       2.41       1.01      26.12
H      24.79       0.96      26.07
H       0.30       3.10      23.21
H       2.41      26.16       1.06
H       0.30      24.07       3.97
H      24.79      26.22       1.11
H      11.47      26.16      12.82
H      15.69      26.22      12.76
H      13.57      24.08       9.91
H      11.47       1.02      14.36
H      13.58       3.10      17.27
H      15.69       0.95      14.41
H       6.20      22.31       6.16
H       6.26      18.09       6.13
H       4.16      20.18       3.23
H       7.68      22.32       7.71
H       9.72      20.18      10.65
H       7.62      18.09       7.75
H       7.68       4.86      19.46
H       7.62       9.09      19.44
H       9.72       7.00      16.53
H       6.20       4.86      21.02
H       4.16       7.00      23.95
H       6.26       9.09      21.05
H      21.02       4.84      20.98
H      20.86       9.06      21.09
H      23.02       6.97      23.95
H      19.46       4.84      19.51
H      17.46       6.97      16.54
H      19.62       9.06      19.39
H      19.45      22.34       7.67
H      19.62      18.12       7.80
H      17.46      20.21      10.65
H      21.03      22.34       6.21
H      23.02      20.21       3.23
H      20.86      18.12       6.08
H      15.71      14.34      12.84
H      11.49      14.29      12.79
H      13.61      16.31       9.85
H      15.71      12.84      14.35
H      13.61      10.87      17.34
H      11.49      12.89      14.39
H      24.77      12.84      26.14
H       2.39      12.90      26.09
H       0.27      10.87      23.15
H      24.77      14.34       1.04
H       0.27      16.32       4.03
H       2.39      14.29       1.09
H      23.92      23.67       1.25
H      24.73      24.92       5.19
H      16.56       3.51      14.56
H      15.76       2.25      18.50
H      10.16      17.24       7.88
H       8.89      17.98      11.83
H       3.72       9.95      21.18
H       4.99       9.20      25.13
H      16.56      23.67      12.62
H      15.76      24.92       8.68
H      23.92       3.51      25.93
H      24.73       2.26      21.99
H       3.71      17.24       5.99
H       5.00      17.98       2.05
H      10.16       9.94      19.30
H       8.88       9.20      15.35
H       3.26       3.56      25.95
H       2.50       2.26      22.02
H      10.62      23.62      12.65
H      11.37      24.92       8.71
H      17.07       9.94      19.28
H      18.30       9.14      15.32
H      23.42      17.24       5.97
H      22.18      18.03       2.02
H      10.62       3.56      14.53
H      11.38       2.26      18.47
H       3.26      23.62       1.23
H       2.50      24.92       5.17
H      23.42       9.94      21.21
H      22.18       9.15      25.16
H      17.07      17.24       7.91
H      18.30      18.04      11.86
H       2.41       1.01       7.51
H      24.79       0.96       7.47
H       0.30       3.10       4.61
H       2.41      26.16       9.06
H       0.30      24.07      11.97
H      24.79      26.22       9.11
H      11.47      26.16      20.82
H      15.69      26.22      20.76
H      13.57      24.08      17.91
H      11.47       1.02      22.36
H      13.58       3.10      25.27
H      15.69       0.95      22.41
H       6.20      22.31      14.16
H       6.26      18.09      14.13
H       4.16      20.18      11.23
H       7.68      22.32      15.71
H       9.72      20.18      18.65
H       7.62      18.09      15.75
H       7.68       4.86       0.86
H       7.62       9.09       0.83
H       9.72       7.00      24.53
H       6.20       4.86       2.41
H       4.16       7.00       5.34
H       6.26       9.09       2.44
H      21.02       4.84       2.37
H      20.86       9.06       2.49
H      23.02       6.97       5.34
H      19.46       4.84       0.90
H      17.46       6.97      24.54
H      19.62       9.06       0.78
H      19.45      22.34      15.67
H      19.62      18.12      15.80
H      17.46      20.21      18.65
H      21.03      22.34      14.21
H      23.02      20.21      11.23
H      20.86      18.12      14.08
H      15.71      14.34      20.84
H      11.49      14.29      20.79
H      13.61      16.31      17.85
H      15.71      12.84      22.35
H      13.61      10.87      25.34
H      11.49      12.89      22.39
H      24.77      12.84       7.53
H       2.39      12.90       7.48
H       0.27      10.87       4.54
H      24.77      14.34       9.04
H       0.27      16.32      12.03
H       2.39      14.29       9.09
H      23.92      23.67       9.25
H      24.73      24.92      13.19
H      16.56       3.51      22.56
H      15.76       2.25      26.50
H      10.16      17.24      15.88
H       8.89      17.98      19.83
H       3.72       9.95       2.58
H       4.99       9.20       6.53
H      16.56      23.67      20.62
H      15.76      24.92      16.68
H      23.92       3.51       7.32
H      24.73       2.26       3.38
H       3.71      17.24      13.99
H       5.00      17.98      10.05
H      10.16       9.94       0.69
H       8.88       9.20      23.35
H       3.26       3.56       7.34
H       2.50       2.26       3.41
H      10.62      23.62      20.65
H      11.37      24.92      16.71
H      17.07       9.94       0.67
H      18.30       9.14      23.32
H      23.42      17.24      13.97
H      22.18      18.03      10.02
H      10.62       3.56      22.53
H      11.38       2.26      26.47
H       3.26      23.62       9.23
H       2.50      24.92      13.17
H      23.42       9.94       2.60
H      22.18       9.15       6.55
H      17.07      17.24      15.91
H      18.30      18.04      19.86
C       0.30       0.72      26.30
C       1.50       1.22      25.71
C       1.53       2.04      24.55
C       0.30       2.42      23.98
C      25.67       2.02      24.54
C      25.70       1.19      25.68
C       0.30      26.46       0.88
C       1.50      25.96       1.48
C       1.53      25.14       2.63
C       0.30      24.76       3.21
C      25.68      25.15       2.65
C      25.70      25.99       1.50
C      13.58      26.46      12.99
C      12.38      25.96      12.40
C      12.35      25.14      11.25
C      13.58      24.76      10.67
C      14.81      25.16      11.23
C      14.78      25.99      12.38
C      13.58       0.72      14.19
C      12.38       1.22      14.78
C      12.35       2.04      15.93
C      13.58       2.42      16.51
C      14.81       2.02      15.95
C      14.78       1.19      14.80
C       6.50      20.21       6.34
C       6.00      21.41       5.75
C       5.19      21.42       4.58
C       4.83      20.19       4.01
C       5.22      18.96       4.58
C       6.04      19.00       5.73
C       7.38      20.21       7.53
C       7.88      21.41       8.13
C       8.69      21.43       9.29
C       9.05      20.19       9.87
C       8.66      18.96       9.30
C       7.84      19.00       8.14
C       7.38       6.97      19.65
C       7.88       5.77      19.05
C       8.69       5.75      17.89
C       9.05       6.99      17.31
C       8.66       8.22      17.89
C       7.84       8.18      19.04
C       6.50       6.97      20.84
C       6.00       5.77      21.43
C       5.19       5.75      22.60
C       4.83       6.99      23.17
C       5.21       8.21      22.60
C       6.03       8.18      21.45
C      20.68       6.95      20.84
C      21.20       5.75      21.41
C      22.00       5.72      22.58
C      22.35       6.96      23.18
C      21.94       8.18      22.62
C      21.12       8.15      21.47
C      19.81       6.95      19.65
C      19.28       5.75      19.07
C      18.48       5.72      17.90
C      18.14       6.96      17.31
C      18.54       8.18      17.87
C      19.37       8.15      19.02
C      19.81      20.23       7.54
C      19.28      21.43       8.11
C      18.48      21.46       9.28
C      18.14      20.22       9.87
C      18.54      19.00       9.32
C      19.37      19.03       8.17
C      20.68      20.23       6.34
C      21.20      21.43       5.77
C      22.00      21.46       4.60
C      22.34      20.22       4.01
C      21.94      18.99       4.56
C      21.11      19.03       5.71
C      13.60      14.03      13.00
C      14.81      14.53      12.41
C      14.84      15.32      11.24
C      13.61      15.66      10.64
C      12.38      15.30      11.22
C      12.40      14.50      12.39
C      13.60      13.15      14.18
C      14.81      12.65      14.77
C      14.84      11.86      15.95
C      13.61      11.52      16.54
C      12.38      11.88      15.96
C      12.40      12.68      14.79
C       0.28      13.15      26.30
C      25.68      12.65      25.71
C      25.65      11.86      24.54
C       0.27      11.52      23.94
C       1.50      11.88      24.52
C       1.48      12.68      25.69
C       0.28      14.03       0.88
C      25.68      14.53       1.47
C      25.65      15.32       2.64
C       0.27      15.67       3.24
C       1.50      15.31       2.66
C       1.48      14.50       1.49
C      23.73      23.69       2.26
C      22.64      22.63       4.10
C      24.19      24.40       4.50
C      24.48      24.51       3.12
C      16.75       3.49      15.56
C      17.84       4.55      17.41
C      16.29       2.78      17.81
C      16.00       2.66      16.42
C      10.13      17.03       8.88
C      11.19      15.92      10.72
C       9.42      17.46      11.13
C       9.30      17.77       9.75
C       3.75      10.15      22.19
C       2.69      11.26      24.02
C       4.46       9.72      24.43
C       4.57       9.41      23.06
C      16.75      23.70      11.62
C      17.84      22.63       9.77
C      16.29      24.40       9.37
C      16.00      24.52      10.75
C      23.73       3.49      24.93
C      22.64       4.55      23.08
C      24.19       2.78      22.68
C      24.48       2.66      24.06
C       3.74      17.03       4.99
C       2.69      15.92       3.16
C       4.46      17.46       2.74
C       4.58      17.77       4.12
C      10.13      10.15      18.30
C      11.19      11.26      16.46
C       9.42       9.72      16.05
C       9.30       9.41      17.43
C       3.46       3.53      24.95
C       4.56       4.58      23.10
C       3.03       2.80      22.71
C       2.72       2.69      24.09
C      10.42      23.65      11.64
C       9.31      22.60       9.80
C      10.85      24.38       9.40
C      11.16      24.49      10.78
C      17.09      10.14      18.27
C      16.02      11.23      16.44
C      17.78       9.68      16.02
C      17.91       9.38      17.40
C      23.39      17.05       4.97
C      24.47      15.95       3.13
C      22.70      17.50       2.72
C      22.57      17.80       4.10
C      10.42       3.53      15.54
C       9.31       4.58      17.38
C      10.85       2.80      17.78
C      11.16       2.69      16.40
C       3.46      23.65       2.23
C       4.56      22.60       4.08
C       3.03      24.38       4.48
C       2.72      24.49       3.10
C      23.40      10.14      22.21
C      24.47      11.23      24.05
C      22.71       9.68      24.46
C      22.58       9.38      23.08
C      17.09      17.05       8.91
C      16.02      15.95      10.74
C      17.78      17.50      11.16
C      17.91      17.80       9.78
C       0.30       0.72       7.69
C       1.50       1.22       7.10
C       1.53       2.04       5.95
C       0.30       2.42       5.37
C      25.67       2.02       5.93
C      25.70       1.19       7.08
C       0.30      26.46       8.88
C       1.50      25.96       9.48
C       1.53      25.14      10.63
C       0.30      24.76      11.21
C      25.68      25.15      10.65
C      25.70      25.99       9.50
C      13.58      26.46      20.99
C      12.38      25.96      20.40
C      12.35      25.14      19.25
C      13.58      24.76      18.67
C      14.81      25.16      19.23
C      14.78      25.99      20.38
C      13.58       0.72      22.19
C      12.38       1.22      22.78
C      12.35       2.04      23.93
C      13.58       2.42      24.51
C      14.81       2.02      23.95
C      14.78       1.19      22.80
C       6.50      20.21      14.34
C       6.00      21.41      13.75
C       5.19      21.42      12.58
C       4.83      20.19      12.01
C       5.22      18.96      12.58
C       6.04      19.00      13.73
C       7.38      20.21      15.53
C       7.88      21.41      16.13
C       8.69      21.43      17.29
C       9.05      20.19      17.87
C       8.66      18.96      17.30
C       7.84      19.00      16.14
C       7.38       6.97       1.04
C       7.88       5.77       0.44
C       8.69       5.75      25.89
C       9.05       6.99      25.31
C       8.66       8.22      25.89
C       7.84       8.18       0.43
C       6.50       6.97       2.23
C       6.00       5.77       2.83
C       5.19       5.75       3.99
C       4.83       6.99       4.57
C       5.21       8.21       3.99
C       6.03       8.18       2.84
C      20.68       6.95       2.23
C      21.20       5.75       2.81
C      22.00       5.72       3.98
C      22.35       6.96       4.57
C      21.94       8.18       4.01
C      21.12       8.15       2.86
C      19.81       6.95       1.04
C      19.28       5.75       0.47
C      18.48       5.72      25.90
C      18.14       6.96      25.31
C      18.54       8.18      25.87
C      19.37       8.15       0.41
C      19.81      20.23      15.54
C      19.28      21.43      16.11
C      18.48      21.46      17.28
C      18.14      20.22      17.87
C      18.54      19.00      17.32
C      19.37      19.03      16.17
C      20.68      20.23      14.34
C      21.20      21.43      13.77
C      22.00      21.46      12.60
C      22.34      20.22      12.01
C      21.94      18.99      12.56
C      21.11      19.03      13.71
C      13.60      14.03      21.00
C      14.81      14.53      20.41
C      14.84      15.32      19.24
C      13.61      15.66      18.64
C      12.38      15.30      19.22
C      12.40      14.50      20.39
C      13.60      13.15      22.18
C      14.81      12.65      22.77
C      14.84      11.86      23.95
C      13.61      11.52      24.54
C      12.38      11.88      23.96
C      12.40      12.68      22.79
C       0.28      13.15       7.69
C      25.68      12.65       7.11
C      25.65      11.86       5.93
C       0.27      11.52       5.33
C       1.50      11.88       5.91
C       1.48      12.68       7.08
C       0.28      14.03       8.88
C      25.68      14.53       9.47
C      25.65      15.32      10.64
C       0.27      15.67      11.24
C       1.50      15.31      10.66
C       1.48      14.50       9.49
C      23.73      23.69      10.26
C      22.64      22.63      12.10
C      24.19      24.40      12.50
C      24.48      24.51      11.12
C      16.75       3.49      23.56
C      17.84       4.55      25.41
C      16.29       2.78      25.81
C      16.00       2.66      24.42
C      10.13      17.03      16.88
C      11.19      15.92      18.72
C       9.42      17.46      19.13
C       9.30      17.77      17.75
C       3.75      10.15       3.58
C       2.69      11.26       5.41
C       4.46       9.72       5.83
C       4.57       9.41       4.45
C      16.75      23.70      19.62
C      17.84      22.63      17.77
C      16.29      24.40      17.37
C      16.00      24.52      18.75
C      23.73       3.49       6.32
C      22.64       4.55       4.48
C      24.19       2.78       4.08
C      24.48       2.66       5.46
C       3.74      17.03      12.99
C       2.69      15.92      11.16
C       4.46      17.46      10.74
C       4.58      17.77      12.12
C      10.13      10.15      26.30
C      11.19      11.26      24.46
C       9.42       9.72      24.05
C       9.30       9.41      25.43
C       3.46       3.53       6.34
C       4.56       4.58       4.49
C       3.03       2.80       4.10
C       2.72       2.69       5.48
C      10.42      23.65      19.64
C       9.31      22.60      17.80
C      10.85      24.38      17.40
C      11.16      24.49      18.78
C      17.09      10.14      26.27
C      16.02      11.23      24.44
C      17.78       9.68      24.02
C      17.91       9.38      25.40
C      23.39      17.05      12.97
C      24.47      15.95      11.13
C      22.70      17.50      10.72
C      22.57      17.80      12.10
C      10.42       3.53      23.54
C       9.31       4.58      25.38
C      10.85       2.80      25.78
C      11.16       2.69      24.40
C       3.46      23.65      10.23
C       4.56      22.60      12.08
C       3.03      24.38      12.48
C       2.72      24.49      11.10
C      23.40      10.14       3.60
C      24.47      11.23       5.44
C      22.71       9.68       5.85
C      22.58       9.38       4.48
C      17.09      17.05      16.91
C      16.02      15.95      18.75
C      17.78      17.50      19.16
C      17.91      17.80      17.78
N      22.88      22.77       2.77
N      23.32      23.45       4.95
N      17.60       4.41      16.07
N      17.17       3.72      18.25
N      11.06      16.18       9.39
N      10.36      16.58      11.57
N       2.82      11.00      22.69
N       3.51      10.60      24.87
N      17.60      22.77      11.11
N      17.16      23.45       8.93
N      22.88       4.41      24.42
N      23.32       3.73      22.24
N       2.81      16.18       4.49
N       3.52      16.58       2.31
N      11.06      11.00      17.79
N      10.36      10.60      15.61
N       4.31       4.45      24.43
N       3.90       3.74      22.26
N       9.57      22.73      11.13
N       9.98      23.44       8.96
N      16.16      10.99      17.77
N      16.84      10.56      15.59
N      24.32      16.20       4.46
N      23.65      16.63       2.28
N       9.57       4.45      16.05
N       9.98       3.74      18.22
N       4.31      22.73       2.75
N       3.90      23.44       4.92
N      24.32      10.99      22.71
N      23.65      10.56      24.90
N      16.16      16.19       9.41
N      16.83      16.63      11.60
N      22.88      22.77      10.77
N      23.32      23.45      12.95
N      17.60       4.41      24.07
N      17.17       3.72      26.25
N      11.06      16.18      17.39
N      10.36      16.58      19.57
N       2.82      11.00       4.08
N       3.51      10.60       6.26
N      17.60      22.77      19.11
N      17.16      23.45      16.93
N      22.88       4.41       5.81
N      23.32       3.73       3.63
N       2.81      16.18      12.49
N       3.52      16.58      10.31
N      11.06      11.00      25.79
N      10.36      10.60      23.61
N       4.31       4.45       5.83
N       3.90       3.74       3.65
N       9.57      22.73      19.13
N       9.98      23.44      16.96
N      16.16      10.99      25.77
N      16.84      10.56      23.59
N      24.32      16.20      12.46
N      23.65      16.63      10.28
N       9.57       4.45      24.05
N       9.98       3.74      26.22
N       4.31      22.73      10.75
N       3.90      23.44      12.92
N      24.32      10.99       4.11
N      23.65      10.56       6.29
N      16.16      16.19      17.41
N      16.83      16.63      19.60
