900

H      23.89      44.72      13.97
H      23.69      44.23      16.26
H      23.68      44.05      18.51
H      23.85      44.13      20.82
H      23.69      48.36      20.76
H      23.84      48.88      14.81
H      26.57      48.21      17.84
H      27.24      52.37      18.21
H      24.87      52.77      18.13
H      20.76      48.22      17.83
H      22.46      52.77      18.14
H      20.09      52.37      18.22
H      23.89      20.38       7.76
H      23.69      22.61       7.04
H      23.68      24.65       6.07
H      23.85      26.61       4.85
H      23.69      24.44       1.22
H      23.84      19.03       3.74
H      26.57      21.99       2.80
H      27.23     -12.47      55.64
H      24.87     -12.74      55.34
H      20.76      21.97       2.80
H      22.46     -12.73      55.34
H      20.09     -12.46      55.64
H      23.89      27.16      31.94
H      23.69      25.42      30.37
H      23.68      23.54      29.08
H      23.83      21.49      27.99
H      23.69      19.46      31.71
H      23.84      24.37      35.11
H      26.56      22.08      33.03
H      27.25      19.68      36.44
H      24.88      19.55      36.83
H      20.76      22.09      33.04
H      22.46      19.54      36.83
H      20.09      19.67      36.45
H       7.96     -15.90      40.69
H       7.77     -15.41      38.40
H       7.76     -15.23      36.15
H       7.92     -15.30      33.84
H       7.76     -19.54      33.90
H       7.91     -20.05      39.85
H      10.64     -19.40      36.82
H      11.31      41.84      36.45
H       8.94      41.44      36.53
H       4.84     -19.39      36.84
H       6.52      41.45      36.52
H       4.15      41.86      36.44
H       7.96       8.44      46.90
H       7.77       6.21      47.62
H       7.76       4.17      48.59
H       7.92       2.21      49.81
H       7.76       4.38      53.44
H       7.91       9.79      50.91
H      10.64       6.84      51.86
H      11.31       8.60      55.65
H       8.94       8.86      55.95
H       4.84       6.85      51.85
H       6.53       8.85      55.95
H       4.16       8.59      55.64
H       7.96       1.65      22.72
H       7.77       3.39      24.28
H       7.76       5.25      25.57
H       7.93       7.29      26.66
H       7.77       9.34      22.96
H       7.92       4.45      19.54
H      10.64       6.74      21.62
H      11.32       9.15      18.21
H       8.95       9.28      17.83
H       4.84       6.74      21.62
H       6.54       9.28      17.83
H       4.17       9.15      18.21
H       7.97      12.01      40.74
H       7.80      11.43      38.42
H       7.72      11.24      36.03
H       7.74      11.41      33.65
H       7.75      15.63      33.93
H       7.77      16.11      39.74
H       4.81      15.42      36.64
H       4.21      19.60      36.61
H       6.55      19.96      36.71
H      10.66      15.41      36.65
H       8.92      19.95      36.71
H      11.26      19.59      36.61
H       7.97     -12.35      46.87
H       7.80     -10.05      47.52
H       7.72      -7.89      48.54
H       7.74      -5.91      49.88
H       7.75      -8.26      53.40
H       7.77     -13.54      50.91
H       4.80     -10.50      51.86
H       4.21     -12.57      55.50
H       6.55     -12.83      55.76
H      10.66     -10.51      51.85
H       8.92     -12.83      55.76
H      11.26     -12.57      55.49
H       7.97      -5.48      22.70
H       7.80      -7.19      24.36
H       7.71      -9.16      25.73
H       7.74     -11.31      26.77
H       7.75     -13.18      22.97
H       7.77      -8.39      19.65
H       4.81     -10.72      21.80
H       4.21      52.55      18.19
H       6.55      52.45      17.84
H      10.66     -10.71      21.80
H       8.92      52.46      17.84
H      11.26      52.56      18.20
H      23.91      16.80      13.90
H      23.72      17.39      16.21
H      23.64      17.60      18.56
H      23.67      17.45      20.94
H      23.67      13.22      20.72
H      23.70      12.70      14.90
H      20.73      13.40      18.01
H      20.13       9.22      18.05
H      22.48       8.86      17.95
H      26.58      13.41      18.00
H      24.85       8.87      17.95
H      27.19       9.23      18.05
H      23.90      41.17       7.79
H      23.72      38.88       7.14
H      23.64      36.71       6.11
H      23.67      34.73       4.78
H      23.67      37.08       1.26
H      23.70      42.36       3.75
H      20.73      39.33       2.80
H      20.13       8.70      55.79
H      22.48       8.96      55.53
H      26.58      39.33       2.81
H      24.85       8.96      55.53
H      27.19       8.69      55.80
H      23.90      34.30      31.96
H      23.72      36.01      30.30
H      23.64      37.98      28.93
H      23.67      40.13      27.89
H      23.67      42.00      31.68
H      23.70      37.21      35.01
H      20.73      39.55      32.86
H      20.13      41.66      36.47
H      22.48      41.76      36.82
H      26.58      39.53      32.85
H      24.85      41.76      36.82
H      27.19      41.66      36.46
H      23.67      46.12      27.78
H      23.69      42.85      24.23
H      23.69      42.14      26.45
H      23.66      47.95      26.31
H      22.76      47.61      24.83
H      24.54      47.62      24.83
H      23.66      44.28      29.43
H      23.01      44.48      22.76
H      23.67      -1.05      56.27
H      23.69      30.20       4.25
H      23.69      32.48       3.76
H      23.66      -3.23      55.43
H      22.76      -4.35      56.46
H      24.54      -4.36      56.45
H      23.66      34.00       0.41
H      23.01      28.12       3.57
H      23.68      14.48      26.08
H      23.70      19.22      25.22
H      23.69      17.72      23.43
H      23.72      14.69      28.36
H      22.73      16.06      28.88
H      24.51      16.15      28.94
H      23.66      14.03      23.70
H      23.00      19.61      27.35
H       7.75      48.09      26.88
H       7.77     -14.03      30.43
H       7.76     -13.32      28.21
H       7.73      46.27      28.34
H       6.84      46.60      29.83
H       8.62      46.59      29.83
H       7.74      49.94      25.22
H       7.08     -15.66      31.89
H       7.75      -2.82      55.01
H       7.77      -1.38      50.41
H       7.76      -3.66      50.90
H       7.73      -0.64      55.86
H       6.84       0.48      54.83
H       8.62       0.49      54.84
H       7.74      -5.18      54.25
H       7.09       0.70      51.09
H       7.75      14.31      28.41
H       7.77       9.60      29.46
H       7.77      11.16      31.19
H       7.73      13.95      26.10
H       6.84      12.50      25.64
H       8.62      12.50      25.63
H       7.74      14.82      30.83
H       7.08       9.15      27.32
H      31.81      49.48      19.54
H      31.44      54.20      18.56
H      29.68      52.72      17.94
H       2.02      49.61      20.47
H       2.36      51.12      21.30
H       2.99      50.82      19.66
H      30.04      49.11      17.96
H       2.14      54.04      18.58
H      31.81      22.82       0.85
H      31.44     -13.07      53.89
H      29.68     -12.87      55.48
H       2.02      23.57       0.27
H       2.36      -9.17      55.18
H       2.99     -10.44      56.26
H      30.03      21.65       1.97
H       2.15     -12.98      54.01
H      31.81      19.97      33.28
H      31.44      18.46      37.85
H      29.68      19.74      36.89
H       2.02      19.10      32.93
H       2.36      17.63      33.82
H       2.99      19.20      34.38
H      30.05      21.54      33.77
H       2.15      18.51      37.71
H      15.88      44.73      35.12
H      15.52      40.02      36.09
H      13.76      41.50      36.72
H      17.94      44.60      34.18
H      18.29      43.09      33.36
H      18.91      43.39      35.00
H      14.10     -20.28      36.70
H      18.07      40.17      36.08
H      15.89       6.00      53.81
H      15.52      41.89       0.77
H      13.76       9.00      55.81
H      17.95       5.25      54.39
H      18.29       5.29      56.11
H      18.92       6.57      55.03
H      14.10       7.17      52.69
H      18.08      41.80       0.63
H      15.89       8.85      21.37
H      15.52      10.37      16.81
H      13.76       9.09      17.77
H      17.94       9.73      21.73
H      18.29      11.20      20.84
H      18.92       9.63      20.28
H      14.12       7.28      20.89
H      18.07      10.30      16.95
H      31.44      44.72      35.12
H      31.81      40.01      36.09
H       1.71      41.49      36.72
H      29.38      44.60      34.19
H      29.04      43.09      33.36
H      28.41      43.39      35.00
H       1.34     -20.30      36.73
H      29.25      40.17      36.07
H      31.44       6.00      53.81
H      31.81      41.89       0.78
H       1.71       9.00      55.81
H      29.38       5.26      54.39
H      29.04       5.29      56.11
H      28.41       6.57      55.03
H       1.36       7.19      52.69
H      29.25      41.80       0.64
H      31.44       8.85      21.37
H      31.81      10.37      16.81
H       1.72       9.09      17.77
H      29.38       9.73      21.73
H      29.04      11.20      20.83
H      28.41       9.63      20.27
H       1.37       7.30      20.91
H      29.25      10.30      16.95
H      15.52      49.49      19.54
H      15.88      54.20      18.57
H      17.64      52.72      17.94
H      13.45      49.62      20.47
H      13.11      51.13      21.30
H      12.48      50.83      19.66
H      17.29      49.11      17.96
H      13.32      54.04      18.58
H      15.52      22.82       0.85
H      15.88     -13.07      53.88
H      17.64     -12.87      55.48
H      13.46      23.57       0.27
H      13.11      -9.17      55.18
H      12.48     -10.44      56.26
H      17.30      21.65       1.96
H      13.32     -12.98      54.01
H      15.52      19.97      33.28
H      15.88      18.46      37.85
H      17.64      19.74      36.89
H      13.46      19.09      32.93
H      13.11      17.62      33.82
H      12.49      19.20      34.39
H      17.29      21.52      33.75
H      13.32      18.52      37.71
H      21.70      44.64      10.83
H      25.50      45.96       8.18
H      25.14      46.99      10.30
H      20.80      43.29       9.21
H      22.10      42.31       8.59
H      21.34      43.54       7.56
H      22.19      46.22      12.41
H      24.12      45.13       6.24
H      21.70      17.70       9.40
H      25.51      14.75       9.58
H      25.14      16.07       7.64
H      20.80      16.97      11.38
H      22.10      16.93      12.54
H      21.34      15.42      11.99
H      22.19      18.29       7.24
H      24.13      13.49      11.26
H      21.70      29.93      33.44
H      25.50      31.57      35.91
H      25.14      29.22      35.74
H      20.80      32.01      33.08
H      22.10      33.04      32.55
H      21.34      33.32      34.13
H      22.19      27.77      34.01
H      24.12      33.66      36.15
H       5.77     -15.82      43.83
H       9.58     -17.14      46.48
H       9.21     -18.16      44.36
H       4.87     -14.47      45.45
H       6.18     -13.49      46.07
H       5.41     -14.72      47.10
H       6.26     -17.40      42.24
H       8.20     -16.30      48.41
H       5.77      11.12      45.26
H       9.58      14.07      45.08
H       9.21      12.75      47.02
H       4.88      11.84      43.28
H       6.18      11.90      42.12
H       5.41      13.40      42.67
H       6.26      10.54      47.43
H       8.20      15.33      43.39
H       5.78      -1.11      21.21
H       9.58      -2.74      18.75
H       9.22      -0.40      18.92
H       4.88      -3.19      21.57
H       6.18      -4.22      22.11
H       5.42      -4.49      20.53
H       6.26       1.06      20.64
H       8.21      -4.84      18.50
C      22.51      49.40      17.84
C      22.98      50.72      17.93
C      24.35      50.72      17.94
C      24.81      49.40      17.86
C      26.21      49.17      17.89
C      27.11      50.26      18.02
C      26.60      51.58      18.11
C      25.23      51.81      18.06
C      22.10      51.81      18.05
C      20.72      51.58      18.10
C      20.22      50.27      18.02
C      21.12      49.17      17.87
C      23.69      47.61      16.51
C      23.64      46.27      16.89
C      23.62      46.15      18.25
C      23.64      47.41      18.86
C      23.65      44.96      18.97
C      23.72      45.02      20.35
C      23.68      46.25      21.07
C      23.66      47.45      20.29
C      23.79      47.91      15.12
C      23.83      46.85      14.16
C      23.82      45.51      14.62
C      23.70      45.21      15.97
C      23.66      48.45      17.77
C      22.52      21.39       1.77
C      22.98      20.81       0.58
C      24.35      20.82       0.58
C      24.82      21.41       1.76
C      26.21      21.55       1.95
C      27.11      21.12       0.93
C      26.60     -12.16      56.38
C      25.22     -12.32      56.20
C      22.10     -12.32      56.20
C      20.73     -12.16      56.38
C      20.22      21.11       0.93
C      21.12      21.53       1.95
C      23.69      21.14       3.98
C      23.65      22.14       4.96
C      23.62      23.38       4.38
C      23.64      23.27       2.99
C      23.65      24.60       5.05
C      23.72      25.76       4.31
C      23.69      25.77       2.88
C      23.66      24.49       2.24
C      23.79      19.79       4.43
C      23.84      19.48       5.82
C      23.82      20.55       6.75
C      23.70      21.87       6.33
C      23.67      21.81       2.63
C      22.52      21.48      34.06
C      22.98      20.74      35.16
C      24.36      20.74      35.15
C      24.82      21.46      34.05
C      26.21      21.56      33.83
C      27.11      20.89      34.71
C      26.61      20.16      35.81
C      25.23      20.09      36.04
C      22.11      20.09      36.04
C      20.73      20.16      35.81
C      20.22      20.90      34.72
C      21.12      21.57      33.85
C      23.69      23.52      33.17
C      23.65      23.86      31.81
C      23.62      22.73      31.03
C      23.64      21.58      31.82
C      23.65      22.69      29.64
C      23.71      21.45      29.01
C      23.68      20.22      29.71
C      23.67      20.32      31.15
C      23.79      24.58      34.12
C      23.84      25.94      33.68
C      23.82      26.20      32.29
C      23.70      25.18      31.36
C      23.67      22.01      33.27
C       6.59     -20.58      36.82
C       7.05      43.49      36.73
C       8.42      43.49      36.72
C       8.89     -20.58      36.80
C      10.29     -20.35      36.77
C      11.18      43.94      36.63
C      10.67      42.63      36.55
C       9.29      42.40      36.60
C       6.17      42.40      36.60
C       4.79      42.65      36.55
C       4.29      43.96      36.64
C       5.19     -20.34      36.79
C       7.76     -18.79      38.15
C       7.72     -17.45      37.77
C       7.69     -17.33      36.41
C       7.72     -18.59      35.80
C       7.72     -16.14      35.69
C       7.80     -16.20      34.30
C       7.76     -17.43      33.58
C       7.74     -18.63      34.37
C       7.86     -19.08      39.54
C       7.91     -18.02      40.50
C       7.89     -16.69      40.04
C       7.78     -16.39      38.69
C       7.74     -19.63      36.89
C       6.59       7.43      52.89
C       7.05       8.01      54.08
C       8.43       8.00      54.08
C       8.89       7.42      52.90
C      10.29       7.28      52.71
C      11.18       7.70      53.73
C      10.68       8.29      54.91
C       9.30       8.45      55.09
C       6.17       8.45      55.08
C       4.80       8.29      54.90
C       4.30       7.71      53.72
C       5.19       7.29      52.70
C       7.77       7.68      50.67
C       7.72       6.69      49.70
C       7.69       5.45      50.28
C       7.72       5.55      51.67
C       7.72       4.23      49.61
C       7.79       3.06      50.35
C       7.76       3.05      51.78
C       7.74       4.33      52.42
C       7.86       9.04      50.23
C       7.91       9.34      48.83
C       7.90       8.27      47.91
C       7.78       6.95      48.32
C       7.74       7.02      52.03
C       6.59       7.34      20.59
C       7.05       8.08      19.50
C       8.43       8.09      19.50
C       8.89       7.36      20.61
C      10.29       7.26      20.82
C      11.19       7.93      19.94
C      10.69       8.66      18.85
C       9.31       8.74      18.62
C       6.18       8.73      18.61
C       4.80       8.66      18.84
C       4.30       7.93      19.94
C       5.20       7.25      20.81
C       7.77       5.30      21.48
C       7.73       4.95      22.83
C       7.69       6.07      23.62
C       7.72       7.23      22.83
C       7.72       6.10      25.01
C       7.80       7.33      25.65
C       7.76       8.57      24.94
C       7.74       8.49      23.51
C       7.87       4.24      20.53
C       7.91       2.87      20.97
C       7.90       2.61      22.36
C       7.78       3.63      23.29
C       7.74       6.80      21.38
C       8.90      16.58      36.81
C       8.42      17.89      36.80
C       7.05      17.90      36.80
C       6.57      16.59      36.80
C       5.17      16.37      36.72
C       4.27      17.48      36.70
C       4.82      18.79      36.71
C       6.19      19.01      36.75
C       9.28      19.00      36.75
C      10.66      18.78      36.72
C      11.20      17.47      36.71
C      10.30      16.36      36.73
C       7.72      14.79      38.09
C       7.71      13.44      37.74
C       7.71      13.33      36.36
C       7.73      14.60      35.78
C       7.72      12.16      35.60
C       7.74      12.27      34.20
C       7.74      13.53      33.57
C       7.74      14.71      34.37
C       7.75      15.13      39.47
C       7.81      14.11      40.46
C       7.84      12.76      40.05
C       7.76      12.42      38.70
C       7.73      15.64      36.86
C       8.89     -11.23      52.78
C       8.42     -11.88      53.93
C       7.05     -11.88      53.93
C       6.57     -11.23      52.79
C       5.17     -11.05      52.65
C       4.27     -11.59      53.61
C       4.81     -12.25      54.74
C       6.19     -12.39      54.91
C       9.28     -12.39      54.91
C      10.66     -12.25      54.73
C      11.20     -11.58      53.60
C      10.30     -11.05      52.64
C       7.71     -11.45      50.59
C       7.71     -10.47      49.60
C       7.71      -9.22      50.19
C       7.73      -9.35      51.58
C       7.72      -7.97      49.56
C       7.74      -6.82      50.35
C       7.74      -6.90      51.76
C       7.74      -8.18      52.38
C       7.75     -12.81      50.20
C       7.81     -13.15      48.82
C       7.84     -12.13      47.85
C       7.76     -10.78      48.23
C       7.73     -10.80      51.94
C       8.89     -11.16      20.71
C       8.42      53.57      19.58
C       7.05      53.56      19.57
C       6.57     -11.17      20.71
C       5.17     -11.13      20.94
C       4.27      53.70      19.99
C       4.81      53.05      18.85
C       6.19      52.97      18.64
C       9.28      52.98      18.64
C      10.66      53.05      18.86
C      11.20      53.70      19.99
C      10.30     -11.12      20.94
C       7.71      -9.16      21.62
C       7.70      -8.79      22.97
C       7.71      -9.92      23.75
C       7.73     -11.06      22.93
C       7.72     -10.00      25.15
C       7.74     -11.26      25.75
C       7.74     -12.44      24.97
C       7.74     -12.34      23.55
C       7.75      -8.13      20.64
C       7.81      -6.76      21.03
C       7.84      -6.44      22.40
C       7.76      -7.44      23.37
C       7.73     -10.65      21.50
C      24.82      12.24      17.84
C      24.35      10.93      17.85
C      22.97      10.92      17.86
C      22.49      12.24      17.85
C      21.09      12.45      17.94
C      20.20      11.34      17.96
C      20.74      10.04      17.95
C      22.12       9.81      17.91
C      25.21       9.82      17.90
C      26.58      10.05      17.94
C      27.13      11.36      17.95
C      26.22      12.46      17.93
C      23.64      14.03      16.55
C      23.63      15.38      16.89
C      23.64      15.50      18.26
C      23.65      14.22      18.85
C      23.65      16.68      19.00
C      23.67      16.58      20.39
C      23.67      15.32      21.03
C      23.67      14.13      20.26
C      23.68      13.69      15.17
C      23.74      14.71      14.19
C      23.77      16.06      14.58
C      23.68      16.40      15.94
C      23.65      13.18      17.78
C      24.82      40.05       1.88
C      24.35      40.70       0.73
C      22.97      40.70       0.73
C      22.50      40.05       1.87
C      21.09      39.87       2.01
C      20.20      40.41       1.05
C      20.74       8.38      56.55
C      22.12       8.52      56.38
C      25.20       8.52      56.38
C      26.58       8.37      56.56
C      27.13      40.41       1.06
C      26.22      39.87       2.02
C      23.64      40.27       4.07
C      23.63      39.29       5.06
C      23.64      38.04       4.47
C      23.65      38.18       3.07
C      23.65      36.79       5.10
C      23.66      35.64       4.30
C      23.67      35.73       2.90
C      23.67      37.01       2.27
C      23.68      41.63       4.46
C      23.74      41.98       5.84
C      23.77      40.95       6.81
C      23.69      39.61       6.43
C      23.65      39.63       2.71
C      24.82      39.98      33.95
C      24.35      40.65      35.08
C      22.97      40.65      35.08
C      22.49      39.99      33.95
C      21.09      39.95      33.72
C      20.19      40.52      34.67
C      20.74      41.17      35.81
C      22.12      41.24      36.02
C      25.20      41.24      36.02
C      26.58      41.16      35.80
C      27.12      40.51      34.66
C      26.22      39.94      33.72
C      23.64      37.98      33.04
C      23.63      37.61      31.69
C      23.64      38.74      30.91
C      23.65      39.88      31.72
C      23.65      38.82      29.51
C      23.66      40.08      28.91
C      23.67      41.26      29.69
C      23.66      41.16      31.11
C      23.68      36.95      34.02
C      23.74      35.59      33.63
C      23.76      35.26      32.26
C      23.68      36.27      31.28
C      23.65      39.47      33.16
C      23.67      44.06      27.36
C      23.68      45.44      27.02
C      23.67      45.90      25.67
C      23.66      44.96      24.60
C      23.70      43.58      24.95
C      23.69      43.15      26.28
C      23.66      47.35      25.40
C      23.67      43.62      28.69
C      23.48      45.23      23.22
C      23.68      32.31       1.64
C      23.68      31.32       0.62
C      23.67      29.93       0.89
C      23.66      29.47       2.24
C      23.70      30.46       3.25
C      23.69      31.83       2.97
C      23.66      -3.73      56.40
C      23.67      33.68       1.35
C      23.48      28.14       2.70
C      23.68      15.93      24.58
C      23.69      15.49      25.92
C      23.68      16.38      27.02
C      23.66      17.80      26.81
C      23.70      18.22      25.45
C      23.69      17.33      24.37
C      23.66      15.79      28.38
C      23.67      15.01      23.53
C      23.48      18.84      27.76
C       7.75     -15.24      27.30
C       7.75      48.78      27.64
C       7.74      48.32      28.99
C       7.73     -16.14      30.06
C       7.77     -14.76      29.71
C       7.77     -14.32      28.38
C       7.73      46.86      29.26
C       7.74     -14.80      25.97
C       7.55     -16.40      31.44
C       7.75      -3.48      53.02
C       7.75      -2.50      54.04
C       7.74      -1.10      53.77
C       7.73      -0.64      52.42
C       7.77      -1.64      51.40
C       7.77      -3.01      51.69
C       7.73      -0.14      54.89
C       7.74      -4.86      53.31
C       7.55       0.68      51.96
C       7.75      12.91      29.98
C       7.76      13.31      28.62
C       7.75      12.37      27.55
C       7.74      10.97      27.82
C       7.77      10.59      29.19
C       7.77      11.52      30.24
C       7.73      12.86      26.15
C       7.75      13.85      31.03
C       7.55       9.91      26.90
C      30.56      50.95      18.71
C      31.72      50.49      19.38
C       0.94      51.34      19.75
C       0.85      52.75      19.48
C      31.52      53.21      18.84
C      30.47      52.34      18.47
C       2.14      50.69      20.32
C      29.68      50.00      18.21
C       1.98      53.59      19.45
C      30.57     -11.33      56.63
C      31.72      22.18       0.06
C       0.94     -10.62      55.77
C       0.85     -11.56      54.69
C      31.52     -12.34      54.60
C      30.47     -12.23      55.54
C       2.14      -9.79      56.05
C      29.68      21.42       1.07
C       1.98     -12.00      53.98
C      30.56      19.95      34.97
C      31.71      19.60      34.24
C       0.93      18.86      34.79
C       0.85      18.39      36.14
C      31.52      18.70      36.86
C      30.47      19.47      36.29
C       2.14      18.69      33.93
C      29.68      20.87      34.40
C       1.98      18.00      36.88
C      14.64      43.26      35.95
C      15.79      43.72      35.28
C      16.86      42.87      34.91
C      16.77      41.47      35.18
C      15.59      41.00      35.82
C      14.55      41.87      36.19
C      18.06      43.53      34.33
C      13.75      44.21      36.45
C      17.90      40.63      35.21
C      14.64       7.46      54.66
C      15.79       6.64      54.60
C      16.86       6.75      55.52
C      16.77       7.69      56.60
C      15.59      41.16       0.06
C      14.55       8.36      55.75
C      18.07       5.92      55.24
C      13.75       7.41      53.59
C      17.90      40.82       0.68
C      14.64       8.87      19.68
C      15.79       9.22      20.42
C      16.86       9.96      19.87
C      16.78      10.43      18.52
C      15.59      10.12      17.80
C      14.55       9.36      18.36
C      18.07      10.14      20.73
C      13.76       7.95      20.26
C      17.90      10.83      17.78
C       0.84      43.25      35.95
C      31.54      43.72      35.28
C      30.47      42.87      34.91
C      30.55      41.46      35.18
C      31.73      40.99      35.81
C       0.93      41.87      36.19
C      29.26      43.52      34.33
C       1.72      44.21      36.46
C      29.42      40.62      35.20
C       0.84       7.45      54.67
C      31.54       6.64      54.61
C      30.47       6.75      55.53
C      30.55       7.68      56.61
C      31.73      41.16       0.06
C       0.93       8.35      55.75
C      29.26       5.92      55.25
C       1.72       7.41      53.59
C      29.42      40.82       0.69
C       0.84       8.87      19.69
C      31.53       9.22      20.42
C      30.47       9.97      19.87
C      30.55      10.43      18.52
C      31.73      10.12      17.80
C       0.93       9.36      18.37
C      29.26      10.14      20.72
C       1.73       7.96      20.27
C      29.42      10.83      17.78
C      16.76      50.96      18.71
C      15.61      50.49      19.38
C      14.54      51.35      19.75
C      14.62      52.75      19.48
C      15.81      53.22      18.85
C      16.85      52.34      18.47
C      13.33      50.69      20.33
C      17.65      50.00      18.21
C      13.49      53.58      19.45
C      16.76     -11.33      56.62
C      15.61      22.18       0.06
C      14.54     -10.62      55.77
C      14.62     -11.56      54.69
C      15.80     -12.34      54.60
C      16.85     -12.23      55.54
C      13.33      -9.79      56.04
C      17.65      21.42       1.06
C      13.49     -12.00      53.97
C      16.76      19.95      34.97
C      15.61      19.60      34.24
C      14.54      18.86      34.79
C      14.62      18.39      36.14
C      15.81      18.71      36.86
C      16.85      19.47      36.29
C      13.34      18.69      33.93
C      17.65      20.86      34.39
C      13.49      18.00      36.88
C      23.35      45.95      10.75
C      22.50      44.92      10.26
C      22.70      44.29       9.01
C      23.82      44.66       8.21
C      24.70      45.64       8.73
C      24.48      46.27       9.98
C      21.68      43.31       8.57
C      23.06      46.50      12.01
C      23.95      44.36       6.85
C      23.35      16.98       8.30
C      22.50      17.07       9.44
C      22.70      16.30      10.61
C      23.82      15.42      10.69
C      24.71      15.39       9.58
C      24.48      16.15       8.42
C      21.68      16.41      11.68
C      23.06      17.80       7.20
C      23.95      14.39      11.63
C      23.35      29.34      34.62
C      22.50      30.28      33.97
C      22.70      31.68      34.05
C      23.82      32.19      34.77
C      24.70      31.25      35.36
C      24.48      29.86      35.28
C      21.68      32.56      33.42
C      23.06      27.98      34.46
C      23.95      33.53      35.19
C       7.42     -17.13      43.90
C       6.58     -16.10      44.40
C       6.77     -15.47      45.65
C       7.89     -15.84      46.45
C       8.78     -16.82      45.92
C       8.56     -17.45      44.68
C       5.75     -14.49      46.09
C       7.13     -17.68      42.65
C       8.02     -15.53      47.81
C       7.42      11.84      46.36
C       6.58      11.75      45.22
C       6.77      12.52      44.05
C       7.89      13.40      43.97
C       8.78      13.43      45.08
C       8.56      12.67      46.24
C       5.75      12.41      42.97
C       7.13      11.03      47.46
C       8.02      14.43      43.02
C       7.42      -0.52      20.04
C       6.58      -1.46      20.68
C       6.78      -2.86      20.60
C       7.89      -3.37      19.88
C       8.78      -2.42      19.30
C       8.56      -1.03      19.38
C       5.76      -3.74      21.24
C       7.13       0.84      20.19
C       8.02      -4.70      19.47
N      23.82      46.21      22.44
N      18.92      50.11      18.11
N      28.41      50.11      18.11
N      23.98      46.91      12.83
N      23.82      26.97       2.24
N      18.92      21.27       1.01
N      28.41      21.27       1.01
N      23.98      18.30       6.44
N      23.83      19.05      29.00
N      18.92      20.89      34.55
N      28.41      20.91      34.53
N      23.98      27.07      34.40
N       7.89     -17.39      32.22
N       2.99      44.13      36.57
N      12.48      44.09      36.54
N       8.05     -18.08      41.83
N       7.89       1.85      52.42
N       2.99       7.55      53.62
N      12.48       7.55      53.65
N       8.05      10.52      48.22
N       7.90       9.73      25.66
N       3.00       7.93      20.11
N      12.49       7.92      20.12
N       8.05       1.75      20.25
N       7.75      13.48      32.26
N      12.48      17.39      36.34
N       2.99      17.40      36.34
N       7.94      14.40      41.74
N       7.74      -5.74      52.37
N      12.48     -11.23      53.72
N       2.99     -11.23      53.73
N       7.94     -14.41      48.43
N       7.74     -13.55      25.67
N      12.48      53.42      20.24
N       2.99      53.41      20.24
N       7.94      -5.80      20.13
N      23.67      15.42      22.33
N      28.41      11.43      18.32
N      18.91      11.42      18.32
N      23.87      14.41      12.91
N      23.67      34.56       2.28
N      28.41      40.05       0.94
N      18.91      40.05       0.93
N      23.86      43.24       6.22
N      23.67      42.38      28.99
N      28.41      40.79      34.41
N      18.91      40.80      34.42
N      23.86      34.62      34.53
