608

H      23.49       5.10      13.19
H      24.03       6.48      12.24
H      25.57       6.17      10.19
H      26.14       4.57       9.76
H      23.12       6.79       9.80
H      21.96       5.62       9.19
H      24.46       2.81       8.83
H      22.77       3.28       8.57
H      25.37       2.49      11.18
H      24.34       2.75      12.58
H      21.23       3.59      10.58
H      21.83       3.40      12.22
H       9.87       9.12      14.14
H      10.42       7.74      15.08
H      11.96       8.05      17.13
H      12.53       9.65      17.56
H       9.51       7.43      17.52
H       8.35       8.60      18.14
H      10.84      11.41      18.50
H       9.16      10.94      18.76
H      11.76      11.73      16.14
H      10.73      11.47      14.74
H       7.62      10.63      16.74
H       8.22      10.82      15.10
H       3.55      22.31      26.97
H       4.08      23.77      27.81
H       5.58      25.49      26.70
H       6.10      25.27      25.03
H       3.04      26.01      27.17
H       1.93      26.15      25.82
H       4.43      25.41      23.10
H       2.75      25.80      23.43
H       5.40      23.15      23.75
H       4.35      21.94      24.48
H       1.22      24.00      24.52
H       1.89      22.44      24.98
H      17.16      20.56       0.35
H      17.70      19.10      28.16
H      19.19      17.37       0.62
H      19.71      17.59       2.29
H      16.66      16.85       0.15
H      15.55      16.71       1.50
H      18.05      17.45       4.23
H      16.36      17.06       3.89
H      19.01      19.71       3.57
H      17.96      20.92       2.84
H      14.83      18.86       2.80
H      15.50      20.42       2.35
H      17.26       9.26      13.34
H      16.69       7.86      12.43
H      15.10       8.15      10.40
H      14.50       9.75      10.00
H      17.51       7.52       9.95
H      18.64       8.69       9.27
H      16.15      11.49       8.95
H      17.82      11.00       8.64
H      15.29      11.82      11.33
H      16.39      11.63      12.69
H      19.42      10.74      10.62
H      18.87      10.96      12.27
H       3.65       4.96      13.99
H       3.08       6.36      14.89
H       1.49       6.07      16.92
H       0.89       4.47      17.32
H       3.90       6.70      17.37
H       5.03       5.53      18.05
H       2.54       2.73      18.38
H       4.21       3.22      18.68
H       1.67       2.40      15.99
H       2.78       2.59      14.64
H       5.81       3.48      16.71
H       5.26       3.26      15.05
H      10.78      20.81      26.65
H      10.13      19.47      27.58
H       8.38      17.87      26.58
H       7.76      18.15      24.95
H      10.80      17.00      26.87
H      11.84      16.76      25.47
H       9.27      17.77      22.90
H      10.92      17.18      23.14
H       8.64      20.13      23.60
H       9.88      21.22      24.22
H      12.73      18.76      24.14
H      12.28      20.40      24.59
H      24.39      22.05       0.67
H      23.74      23.40      28.38
H      21.99      24.99       0.74
H      21.37      24.71       2.37
H      24.41      25.86       0.45
H      25.45      26.10       1.85
H      22.89      25.09       4.42
H      24.53      25.68       4.18
H      22.25      22.73       3.73
H      23.49      21.65       3.10
H      26.34      24.10       3.18
H      25.89      22.46       2.73
H       3.57      23.28      14.24
H       2.98      21.95      15.23
H       1.47      22.37      17.28
H       0.93      24.00      17.65
H       3.92      21.73      17.69
H       5.10      22.91      18.25
H       2.65      25.77      18.50
H       4.33      25.30      18.77
H       1.72      26.00      16.14
H       2.73      25.66      14.74
H       5.86      24.86      16.75
H       5.24      24.98      15.11
H      17.18      19.58      13.09
H      16.60      20.91      12.09
H      15.09      20.49      10.05
H      14.55      18.86       9.68
H      17.53      21.14       9.63
H      18.71      19.95       9.07
H      16.27      17.09       8.82
H      17.94      17.56       8.56
H      15.34      16.86      11.18
H      16.35      17.20      12.58
H      19.48      18.00      10.57
H      18.86      17.88      12.21
H      23.73       6.28       0.45
H      23.25       4.86      28.18
H      21.65       3.11       0.53
H      21.03       3.31       2.17
H      24.20       2.54       0.24
H      25.24       2.40       1.65
H      22.56       3.10       4.22
H      24.26       2.71       3.99
H      21.65       5.39       3.52
H      22.76       6.61       2.89
H      25.87       4.50       2.99
H      25.23       6.08       2.55
H      10.12       7.94      26.87
H       9.63       9.36      27.79
H       8.04      11.11      26.79
H       7.42      10.91      25.15
H      10.58      11.68      27.08
H      11.62      11.82      25.67
H       8.95      11.12      23.11
H      10.65      11.51      23.34
H       8.04       8.83      23.80
H       9.15       7.61      24.43
H      12.26       9.72      24.33
H      11.61       8.14      24.77
H       9.91      19.41      13.97
H      10.54      20.76      14.91
H      12.12      20.37      16.93
H      12.69      18.74      17.27
H       9.72      21.04      17.42
H       8.57      19.88      18.07
H      11.00      17.00      18.28
H       9.34      17.51      18.61
H      11.84      16.74      15.89
H      10.75      17.00      14.54
H       7.73      17.89      16.64
H       8.27      17.73      14.98
H      23.52      23.45      13.35
H      24.15      22.11      12.41
H      25.73      22.49      10.39
H      26.30      24.12      10.05
H      23.34      21.82       9.90
H      22.18      22.99       9.26
H      24.61      25.86       9.04
H      22.95      25.35       8.71
H      25.45      26.12      11.43
H      24.36      25.86      12.78
H      21.34      24.97      10.68
H      21.89      25.14      12.34
H      16.41       7.60       0.68
H      16.95       8.96      28.33
H      18.68      10.63       0.56
H      19.35      10.45       2.19
H      16.17      11.34       0.29
H      15.21      11.65       1.73
H      17.88      10.84       4.26
H      16.21      11.34       4.05
H      18.62       8.48       3.63
H      17.42       7.31       3.09
H      14.45       9.61       3.21
H      14.96       7.98       2.78
H       2.80       6.62      26.64
H       3.34       5.27      27.63
H       5.07       3.60      26.76
H       5.73       3.77      25.14
H       2.56       2.88      27.03
H       1.60       2.58      25.59
H       4.27       3.38      23.06
H       2.59       2.88      23.27
H       5.01       5.74      23.69
H       3.81       6.91      24.23
H       0.84       4.61      24.11
H       1.35       6.24      24.55
H      21.01       9.48      11.79
H      19.71       4.87      11.85
H       7.39       4.74      15.53
H       6.09       9.35      15.47
H      25.38      24.80      27.28
H       2.26      23.04       0.36
H      11.77      18.06       0.04
H      15.87      19.82      26.96
H       8.95      22.33      15.47
H       4.59      20.39      15.78
H      22.56      20.53      11.86
H      18.20      22.47      11.54
H      26.56       3.69      25.72
H       0.04       5.76       1.35
H      12.94      10.53       1.60
H      13.65       8.46      25.97
H       7.80      23.99      26.02
H       6.45      19.41      26.55
H      21.41      18.88       1.30
H      20.06      23.45       0.78
H      14.00      10.57      15.92
H      13.13       8.51      11.68
H       0.39       3.65      11.41
H      26.75       5.71      15.65
H      19.42       4.57       1.13
H      20.74       9.16       0.77
H       5.80       9.65      26.20
H       7.13       5.06      26.55
H      13.06      18.07      11.33
H      14.03      20.05      15.59
H      26.67      24.79      15.99
H       0.42      22.81      11.73
H      25.99       4.03       7.38
H      22.46       6.57       5.36
H      12.38      10.19      19.95
H       8.85       7.65      21.96
H       4.12      27.72      23.00
H       4.33       1.24      27.27
H      17.74      15.14       4.32
H      17.94      12.98       0.06
H      14.58      10.28       7.58
H      17.84       7.43       5.53
H       0.97       3.94      19.74
H       4.22       6.79      21.79
H       9.43      15.38      22.86
H       8.96      13.44      27.21
H      23.05      27.48       4.47
H      22.57       0.78       0.11
H       1.13      24.64      20.03
H       4.44      21.84      22.06
H      14.74      18.22       7.29
H      18.05      21.03       5.27
H      12.58      18.12      19.70
H       9.54      21.20      21.77
H      26.19      24.74       7.62
H      23.16      21.66       5.56
H      17.67      13.30       8.56
H      17.96      15.46      12.81
H       4.06       0.92      18.77
H       4.34      27.40      14.51
H      23.03       0.94       8.55
H      22.77      27.60      12.89
H       9.42      13.28      18.78
H       9.16      15.26      14.43
C      22.47       5.28      11.27
C      22.85       5.73       9.82
C      23.75       5.43      12.17
C      24.98       4.61      11.63
C      25.29       5.11      10.17
C      24.05       4.92       9.21
C      23.64       3.41       9.23
C      23.28       2.87      10.66
C      24.54       3.10      11.56
C      22.10       3.74      11.22
C       8.86       8.94      16.05
C       9.24       8.49      17.51
C      10.13       8.79      15.15
C      11.36       9.61      15.69
C      11.68       9.11      17.16
C      10.44       9.30      18.11
C      10.02      10.81      18.09
C       9.67      11.35      16.66
C      10.93      11.12      15.76
C       8.49      10.48      16.10
C       2.48      24.08      26.32
C       2.81      25.61      26.18
C       3.78      23.37      26.83
C       4.98      23.55      25.85
C       5.27      25.09      25.72
C       4.02      25.88      25.20
C       3.62      25.26      23.81
C       3.28      23.73      23.87
C       4.56      23.01      24.44
C       2.12      23.51      24.90
C      16.09      18.78       1.00
C      16.43      17.25       1.14
C      17.39      19.49       0.49
C      18.60      19.32       1.47
C      18.89      17.77       1.60
C      17.63      16.99       2.12
C      17.23      17.61       3.51
C      16.89      19.14       3.45
C      18.17      19.85       2.89
C      15.73      19.35       2.43
C      18.21       9.06      11.38
C      17.78       8.58       9.94
C      16.97       8.91      12.34
C      15.73       9.72      11.82
C      15.37       9.21      10.37
C      16.56       9.38       9.37
C      16.98      10.89       9.34
C      17.37      11.46      10.74
C      16.14      11.24      11.69
C      18.57      10.60      11.29
C       4.60       5.16      15.94
C       4.17       5.64      17.38
C       3.36       5.31      14.99
C       2.12       4.50      15.50
C       1.76       5.01      16.95
C       2.95       4.84      17.96
C       3.37       3.33      17.99
C       3.76       2.76      16.58
C       2.53       2.98      15.63
C       4.96       3.62      16.04
C      11.56      18.87      26.01
C      11.04      17.39      25.88
C      10.41      19.78      26.58
C       9.14      19.72      25.67
C       8.66      18.22      25.58
C       9.76      17.28      24.98
C      10.15      17.83      23.56
C      10.67      19.30      23.59
C       9.54      20.18      24.22
C      11.91      19.37      24.55
C      25.17      23.99       1.31
C      24.65      25.47       1.44
C      24.02      23.08       0.75
C      22.75      23.14       1.65
C      22.27      24.64       1.74
C      23.37      25.58       2.34
C      23.76      25.03       3.76
C      24.29      23.56       3.73
C      23.15      22.69       3.10
C      25.52      23.49       2.77
C       4.57      23.16      16.15
C       4.20      22.78      17.63
C       3.30      23.00      15.26
C       2.09      23.86      15.78
C       1.78      23.42      17.26
C       3.02      23.64      18.20
C       3.46      25.14      18.11
C       3.81      25.61      16.65
C       2.54      25.36      15.77
C       4.98      24.69      16.13
C      18.19      19.70      11.17
C      17.82      20.08       9.70
C      16.92      19.86      12.06
C      15.71      19.00      11.54
C      15.39      19.44      10.06
C      16.63      19.23       9.12
C      17.07      17.72       9.21
C      17.43      17.25      10.67
C      16.15      17.50      11.55
C      18.59      18.17      11.19
C      24.72       4.47       1.13
C      24.38       2.94       1.24
C      23.48       5.22       0.54
C      22.21       5.03       1.45
C      21.90       3.49       1.53
C      23.11       2.68       2.13
C      23.42       3.27       3.56
C      23.77       4.80       3.54
C      22.54       5.53       2.90
C      25.00       5.01       2.58
C      11.11       9.75      26.20
C      10.76      11.28      26.08
C       9.87       9.00      26.78
C       8.60       9.19      25.88
C       8.29      10.73      25.79
C       9.49      11.54      25.19
C       9.81      10.95      23.77
C      10.16       9.43      23.79
C       8.93       8.69      24.42
C      11.38       9.21      24.74
C       8.99      19.57      15.95
C       9.43      19.98      17.39
C      10.22      19.71      14.98
C      11.44      18.86      15.47
C      11.82      19.32      16.93
C      10.64      19.13      17.93
C      10.18      17.64      17.92
C       9.76      17.13      16.48
C      11.00      17.35      15.54
C       8.59      18.04      15.98
C      22.60      23.29      11.38
C      23.04      22.88       9.93
C      23.83      23.15      12.34
C      25.05      24.00      11.85
C      25.44      23.55      10.39
C      24.25      23.73       9.39
C      23.79      25.23       9.41
C      23.37      25.73      10.84
C      24.61      25.51      11.78
C      22.20      24.82      11.34
C      15.54       9.51       1.30
C      16.01      11.01       1.32
C      16.73       8.65       0.72
C      18.03       8.79       1.57
C      18.44      10.31       1.58
C      17.31      11.21       2.17
C      17.00      10.71       3.63
C      16.55       9.20       3.68
C      17.71       8.37       3.04
C      15.27       9.03       2.78
C       1.93       4.71      26.02
C       2.39       3.21      26.00
C       3.11       5.57      26.60
C       4.42       5.43      25.76
C       4.83       3.91      25.74
C       3.70       3.01      25.15
C       3.38       3.51      23.69
C       2.94       5.02      23.64
C       4.09       5.85      24.28
C       1.66       5.19      24.54
C      20.70       8.51      11.86
C      21.38       6.20      11.75
C      20.02       5.83      11.90
C      19.33       8.15      11.82
C       7.09       5.70      15.46
C       7.76       8.02      15.58
C       6.41       8.38      15.42
C       5.72       6.07      15.51
C      26.24      24.42      27.67
C       1.33      23.93      27.28
C       1.40      23.42      28.60
C      26.33      23.95       0.36
C      12.63      18.44      28.29
C      14.94      18.93       0.04
C      15.01      19.45      27.37
C      12.72      18.91      26.96
C       8.03      21.89      15.45
C       5.67      22.24      15.70
C       5.50      20.83      15.63
C       7.87      20.49      15.55
C      21.64      20.97      11.87
C      19.28      20.63      11.62
C      19.11      22.03      11.69
C      21.48      22.37      11.77
C      26.71       4.17      26.60
C      25.87       4.65       0.16
C      27.07       5.33       0.44
C       0.71       4.81      26.90
C      13.10      10.05       0.72
C      12.25       9.57      27.16
C      13.46       8.89      26.88
C      14.32       9.41       0.42
C       7.49      23.03      26.20
C       8.12      20.70      26.18
C       6.78      20.37      26.50
C       6.13      22.68      26.31
C      21.10      19.83       1.12
C      21.73      22.16       1.14
C      20.39      22.49       0.82
C      19.74      20.18       1.02
C      13.81      10.10      15.03
C      14.60       9.58      12.82
C      13.36       8.94      12.57
C      12.55       9.50      14.77
C       0.20       4.12      12.29
C       0.99       4.64      14.51
C      26.98       5.28      14.75
C      26.17       4.72      12.55
C      19.72       5.53       0.98
C      19.08       7.85       1.04
C      20.42       8.20       0.77
C      21.09       5.89       0.94
C       6.11       8.69      26.34
C       5.47       6.37      26.28
C       6.80       6.02      26.55
C       7.47       8.33      26.38
C      13.27      18.54      12.22
C      12.54      19.01      14.46
C      13.78      19.65      14.70
C      14.53      19.13      12.47
C      26.88      24.32      15.11
C      26.15      23.85      12.86
C       0.17      23.22      12.63
C       0.91      23.73      14.86
C      25.28       4.64       6.96
C      24.08       5.23       4.95
C      23.26       6.07       5.74
C      24.32       5.30       7.77
C      11.67       9.58      20.36
C      10.47       8.99      22.37
C       9.65       8.15      21.58
C      10.70       8.92      19.55
C       4.20      28.13      23.93
C       4.09       1.55      25.17
C       4.32       0.80      26.35
C       4.26      27.37      25.12
C      17.81      14.73       3.39
C      17.70      12.67       2.15
C      17.94      13.42       0.97
C      17.88      15.49       2.20
C      15.24       9.62       7.17
C      16.27       8.85       5.13
C      17.09       8.01       5.92
C      16.22       8.97       7.95
C       1.63       4.60      20.15
C       2.66       5.37      22.19
C       3.48       6.21      21.40
C       2.61       5.25      19.37
C       9.30      15.01      23.80
C       9.21      13.02      25.13
C       9.02      13.83      26.27
C       9.32      15.83      24.95
C      22.92      27.85       3.52
C      22.82       1.20       2.19
C      22.63       0.39       1.05
C      22.93      27.03       2.37
C       1.80      23.99      20.44
C       2.91      23.28      22.47
C       3.68      22.40      21.67
C       2.74      23.30      19.65
C      15.41      18.87       6.88
C      16.52      19.58       4.86
C      17.29      20.46       5.65
C      16.35      19.56       7.68
C      11.96      18.82      20.12
C      11.01      19.68      22.16
C      10.25      20.57      21.37
C      11.01      19.52      19.35
C      25.58      24.04       7.20
C      24.63      23.18       5.16
C      23.86      22.29       5.95
C      24.62      23.34       7.97
C      17.76      13.71       9.49
C      17.77      15.78      10.71
C      17.93      15.02      11.90
C      17.72      12.94      10.68
C       4.14       0.51      17.84
C       4.16      27.09      16.61
C       4.32      27.84      15.43
C       4.11       1.28      16.64
C      22.95       0.57       9.49
C      23.00      27.20      10.81
C      22.79      28.00      11.96
C      22.95       1.39      10.65
C       9.34      13.65      17.83
C       9.39      15.66      16.51
C       9.18      14.86      15.37
C       9.33      12.83      16.67
N      21.63       7.54      11.77
N      19.08       6.81      11.87
N       8.02       6.68      15.55
N       5.47       7.41      15.45
N       0.12      24.41      26.89
N       0.31      23.46       0.75
N      13.73      18.45       0.43
N      13.92      19.40      26.57
N       6.94      22.69      15.58
N       6.59      20.03      15.63
N      20.56      20.17      11.74
N      20.20      22.83      11.69
N      25.75       4.12      27.56
N       0.82       5.36      28.15
N      12.14      10.10      28.41
N      14.43       8.86      27.82
N       8.40      22.03      26.10
N       5.86      21.36      26.48
N      22.01      20.83       1.22
N      19.47      21.51       0.85
N      14.75      10.12      14.06
N      12.41       8.95      13.53
N       1.14       4.10      13.26
N      26.02       5.27      13.79
N      18.80       6.51       1.09
N      21.35       7.22       0.81
N       5.19       7.71      26.23
N       7.74       7.00      26.51
N      12.35      18.50      13.21
N      14.70      19.65      13.71
N      25.96      24.36      14.11
N       1.09      23.21      13.61
N      25.08       4.58       5.62
N      23.37       6.00       7.09
N      11.47       9.64      21.70
N       9.76       8.21      20.23
N       4.07       0.83      24.01
N       4.35      28.09      26.28
N      17.68      13.39       3.31
N      17.97      14.78       1.05
N      15.36       9.59       5.81
N      17.08       8.16       7.27
N       1.75       4.63      21.51
N       3.47       6.06      20.05
N       9.30      13.67      23.94
N       9.14      15.18      26.14
N      22.92       0.55       3.38
N      22.75      27.68       1.18
N       1.97      24.00      21.79
N       3.61      22.50      20.33
N      15.58      18.86       5.53
N      17.22      20.36       6.99
N      11.87      18.88      21.47
N      10.22      20.40      20.03
N      25.49      23.98       5.85
N      23.84      22.47       7.29
N      17.73      15.05       9.56
N      17.85      13.66      11.83
N       4.12      27.81      17.76
N       4.23       0.56      15.49
N      23.03      27.87       9.63
N      22.83       0.72      11.83
N       9.41      14.99      17.70
N       9.22      13.50      15.49
