28

H       2.49      -0.24      10.22
H       2.52      -3.43      13.70
H       2.51      -2.30      11.55
H       2.54       2.14      13.75
H       2.56       0.05      19.47
H       2.52       2.20      15.82
H       2.54       2.17      18.22
H       2.52      -3.38      16.11
C       2.47       2.30      11.14
C       2.52      -1.34      12.06
C       2.52       1.07      11.93
C       2.55       0.03      18.38
C       2.54       1.23      17.68
C       2.53       1.23      16.29
C       2.53       0.02      15.55
C       2.53      -1.21      16.28
C       2.53      -0.02      14.12
C       2.53      -1.28      13.46
C       2.52      -2.46      14.20
C       2.53      -2.43      15.58
C       2.54       1.15      13.33
C       2.51      -0.18      11.30
C       2.55      -1.19      17.70
C       2.60      -2.42      18.49
O       3.59       2.89      10.88
O       1.30       2.74      10.82
O       3.77      -2.86      18.82
O       1.48      -3.00      18.76
