72

Al       3.14      14.36      12.01
C       5.89      15.01      12.78
C      -2.38      11.57      12.68
Al       3.14      20.53      12.03
C       2.46      23.28      12.85
C       5.88      19.86      11.22
C       2.47      11.64      11.16
Al      -3.10      14.29      11.90
Al       4.49      17.45      12.06
C      -5.79      15.00      11.08
Al       0.04      13.06      11.97
Al       0.06      21.87      12.03
Al      -4.32      17.41      11.86
Al      -3.00      20.50      11.90
C      -2.34      23.26      11.20
O       3.43      14.87      10.16
C       3.98      15.88       9.61
H       2.56      16.44      13.17
O       2.68      20.82      10.18
C       1.69      21.41       9.62
C       4.02      19.10      14.46
O       2.70      13.92      13.83
C       1.67      13.44      14.39
H       1.15      14.79      10.74
H       2.76      18.53      10.76
O       3.49      20.11      13.89
H       1.21      20.26      13.41
O      -3.55      14.71      13.74
C      -4.01      15.76      14.30
O      -2.61      20.82      13.81
C      -1.62      21.36      14.41
O       4.50      16.88      10.22
O      -4.36      18.05      10.08
O      -0.46      13.15      10.11
O       0.73      21.98      10.23
O      -4.38      16.83      13.71
O       4.49      18.07      13.88
O       0.61      13.03      13.81
O      -0.58      21.84      13.86
O       5.90      16.27      12.53
O      -5.73      18.58      12.36
O      -1.14      11.61      12.36
O       1.21      23.27      12.61
O      -5.73      16.24      11.37
O       5.89      18.63      11.57
O       1.24      11.67      11.49
O      -1.11      23.27      11.56
O       4.97      14.19      12.48
O      -4.83      20.66      12.43
O      -3.24      12.46      12.42
O       3.29      22.37      12.54
O      -4.91      14.13      11.36
O       4.97      20.71      11.49
O       3.33      12.55      11.42
O      -3.17      22.32      11.42
O       3.20      16.17      12.50
O      -2.95      18.65      12.34
O      -1.28      14.33      12.42
O       1.30      20.52      12.48
O      -3.05      16.11      11.43
O       3.15      18.70      11.63
O       1.31      14.40      11.62
O      -1.18      20.56      11.50
H      -2.79      18.57      13.30
C      -5.74      19.81      12.70
C      -3.90      19.09       9.49
H      -1.20      14.57      13.36
O      -3.36      20.09      10.06
C      -1.55      13.48       9.52
O      -2.61      13.86      10.09
H      -2.15      16.45      11.43
H      -0.76      19.69      11.47
