504

H       3.18       1.71       9.74
H       4.35       2.77       5.88
H       5.20      34.19      12.33
H       3.17      36.27       9.35
H       6.87      36.47       8.64
H       7.31      36.94       7.13
H       7.62       0.64      11.76
H       6.76       1.50      10.65
H      15.77      36.02      28.51
H      14.58      34.94      24.66
H      13.75       3.54      31.10
H      15.78       1.45      28.12
H      12.08       1.26      27.41
H      11.64       0.78      25.90
H      11.34      37.09      30.53
H      12.19      36.22      29.42
H      34.55      20.48       9.21
H      33.36      21.54      13.06
H      32.52      15.41       6.63
H      34.55      17.50       9.60
H      30.85      17.70      10.31
H      30.41      18.17      11.82
H      30.11      19.41       7.19
H      30.96      20.28       8.30
H      21.95      17.25      27.98
H      23.12      16.19      31.84
H      23.97      22.31      25.40
H      21.94      20.23      28.37
H      25.65      20.02      29.09
H      26.09      19.56      30.60
H      26.39      18.31      25.96
H      25.53      17.45      27.08
H       9.74       3.17       1.71
H       5.88       4.35       2.77
H      12.33       5.20      34.19
H       9.35       3.17      36.27
H       8.64       6.87      36.48
H       7.13       7.31      36.95
H      11.76       7.61       0.64
H      10.65       6.76       1.50
H      28.51      15.78      36.02
H      24.66      14.59      34.95
H      31.10      13.75       3.54
H      28.12      15.78       1.45
H      27.41      12.08       1.25
H      25.90      11.64       0.78
H      30.54      11.34      37.09
H      29.42      12.20      36.22
H       9.21      34.54      20.48
H      13.07      33.36      21.54
H       6.63      32.52      15.41
H       9.60      34.55      17.50
H      10.31      30.85      17.69
H      11.83      30.41      18.16
H       7.19      30.11      19.41
H       8.30      30.96      20.27
H      27.98      21.95      17.25
H      31.84      23.12      16.19
H      25.40      23.97      22.31
H      28.38      21.94      20.23
H      29.09      25.65      20.03
H      30.60      26.09      19.56
H      25.97      26.39      18.32
H      27.08      25.53      17.45
H       1.71       9.74       3.18
H       2.77       5.89       4.36
H      34.19      12.33       5.20
H      36.27       9.35       3.17
H      36.47       8.64       6.87
H      36.94       7.13       7.31
H       0.64      11.76       7.61
H       1.50      10.65       6.76
H      36.02      28.51      15.78
H      34.96      24.66      14.60
H       3.54      31.10      13.75
H       1.45      28.12      15.78
H       1.25      27.41      12.08
H       0.78      25.90      11.64
H      37.08      30.53      11.34
H      36.22      29.42      12.20
H      20.48       9.21      34.54
H      21.54      13.06      33.35
H      15.41       6.63      32.52
H      17.50       9.60      34.55
H      17.69      10.31      30.85
H      18.16      11.82      30.40
H      19.41       7.19      30.10
H      20.27       8.30      30.96
H      17.25      27.98      21.94
H      16.18      31.83      23.13
H      22.31      25.40      23.97
H      20.23      28.37      21.94
H      20.02      29.09      25.65
H      19.55      30.60      26.09
H      18.31      25.96      26.38
H      17.45      27.07      25.53
H       0.13      35.18      11.69
H       1.41      36.03      11.09
H       0.26      32.87      12.23
H      18.82       2.54      30.46
H      17.53       1.69      29.86
H      18.69       4.86      31.00
H       0.05      16.41       7.26
H      36.30      17.26       7.86
H      37.47      14.10       6.72
H      18.90      21.31      26.03
H      20.19      20.46      26.62
H      19.03      23.63      25.49
H      11.69       0.13      35.18
H      11.09       1.41      36.03
H      12.23       0.26      32.87
H      30.46      18.82       2.54
H      29.86      17.53       1.69
H      31.00      18.69       4.86
H       7.26       0.04      16.41
H       7.86      36.30      17.26
H       6.72      37.46      14.09
H      26.03      18.90      21.31
H      26.63      20.19      20.46
H      25.49      19.03      23.63
H      35.19      11.69       0.13
H      36.03      11.09       1.41
H      32.87      12.23       0.26
H       2.54      30.46      18.82
H       1.70      29.86      17.53
H       4.86      31.00      18.69
H      16.41       7.26       0.04
H      17.26       7.86      36.30
H      14.10       6.72      37.47
H      21.31      26.03      18.90
H      20.47      26.63      20.19
H      23.63      25.49      19.03
H      25.59       9.53      35.22
H      26.46      10.79      35.85
H      23.27       9.67      34.76
H      30.91      28.19      16.46
H      30.04      26.93      17.08
H      33.24      28.05      16.01
H       6.82       9.42       2.50
H       7.69       8.16       1.88
H       4.50       9.27       2.95
H      12.14      28.30      21.26
H      11.27      29.56      20.64
H      14.46      28.44      21.72
H      28.30      21.27      12.14
H      29.55      20.64      11.27
H      28.44      21.72      14.46
H       9.42       2.49       6.82
H       8.16       1.87       7.68
H       9.27       2.95       4.49
H      28.19      16.46      30.90
H      26.93      17.08      30.04
H      28.05      16.00      33.23
H       9.52      35.23      25.59
H      10.78      35.86      26.45
H       9.67      34.77      23.26
H       2.50       6.82       9.42
H       1.87       7.69       8.16
H       2.95       4.50       9.28
H      21.26      12.14      28.29
H      20.63      11.27      29.55
H      21.72      14.47      28.45
H      35.23      25.59       9.53
H      35.85      26.46      10.79
H      34.77      23.27       9.68
H      16.46      30.90      28.20
H      17.08      30.03      26.93
H      15.99      33.23      28.05
C       4.88       0.66       9.02
C       3.83       1.62       8.96
C       3.56       2.33       7.77
C       4.46       2.15       6.70
C       5.61       1.33       6.76
C       5.79       0.52       7.92
C       4.88      37.28      10.12
C       5.94      37.22      11.08
C       6.09      36.04      11.87
C       5.15      35.00      11.70
C       4.02      35.08      10.85
C       3.90      36.24      10.06
C      14.07      37.06      27.79
C      15.12      36.10      27.73
C      15.38      35.39      26.54
C      14.48      35.56      25.47
C      13.33      36.39      25.53
C      13.16      37.21      26.69
C      14.07       0.44      28.89
C      13.01       0.50      29.85
C      12.86       1.69      30.64
C      13.80       2.73      30.47
C      14.93       2.65      29.62
C      15.04       1.48      28.83
C      32.84      19.43       9.93
C      33.89      20.39       9.99
C      34.15      21.10      11.18
C      33.25      20.93      12.25
C      32.10      20.10      12.19
C      31.93      19.29      11.03
C      32.84      18.51       8.83
C      31.79      18.45       7.87
C      31.63      17.27       7.08
C      32.57      16.23       7.25
C      33.70      16.31       8.10
C      33.82      17.47       8.89
C      23.65      18.29      28.70
C      22.60      17.33      28.76
C      22.33      16.63      29.96
C      23.23      16.81      31.03
C      24.38      17.63      30.97
C      24.56      18.43      29.81
C      23.65      19.22      27.61
C      24.71      19.27      26.64
C      24.87      20.46      25.86
C      23.92      21.50      26.03
C      22.79      21.42      26.87
C      22.68      20.25      27.66
C       9.02       4.88       0.66
C       8.96       3.83       1.62
C       7.77       3.56       2.33
C       6.70       4.46       2.15
C       6.76       5.61       1.33
C       7.92       5.79       0.52
C      10.12       4.88      37.28
C      11.08       5.94      37.22
C      11.87       6.09      36.04
C      11.70       5.15      35.00
C      10.85       4.02      35.08
C      10.07       3.90      36.25
C      27.79      14.07      37.06
C      27.73      15.12      36.10
C      26.55      15.39      35.39
C      25.47      14.48      35.57
C      25.53      13.33      36.39
C      26.69      13.16      37.20
C      28.89      14.08       0.44
C      29.85      13.02       0.50
C      30.64      12.86       1.68
C      30.47      13.81       2.73
C      29.62      14.93       2.65
C      28.83      15.05       1.48
C       9.93      32.84      19.43
C       9.99      33.89      20.39
C      11.18      34.15      21.10
C      12.25      33.25      20.92
C      12.20      32.10      20.10
C      11.03      31.93      19.29
C       8.84      32.84      18.50
C       7.87      31.78      18.45
C       7.09      31.63      17.26
C       7.26      32.57      16.22
C       8.11      33.70      16.30
C       8.89      33.82      17.47
C      28.71      23.65      18.30
C      28.76      22.61      17.33
C      29.95      22.33      16.63
C      31.03      23.23      16.81
C      30.97      24.39      17.63
C      29.81      24.56      18.44
C      27.61      23.65      19.22
C      26.64      24.71      19.28
C      25.86      24.87      20.46
C      26.03      23.92      21.50
C      26.88      22.80      21.42
C      27.66      22.68      20.26
C       0.66       9.02       4.88
C       1.62       8.96       3.83
C       2.33       7.77       3.57
C       2.15       6.70       4.47
C       1.33       6.76       5.62
C       0.52       7.92       5.79
C      37.28      10.12       4.88
C      37.22      11.08       5.94
C      36.04      11.87       6.09
C      35.00      11.70       5.14
C      35.08      10.85       4.02
C      36.25      10.07       3.90
C      37.06      27.79      14.08
C      36.11      27.73      15.12
C      35.40      26.54      15.39
C      35.57      25.47      14.49
C      36.39      25.53      13.34
C      37.20      26.69      13.16
C       0.44      28.89      14.08
C       0.50      29.85      13.02
C       1.68      30.64      12.86
C       2.73      30.47      13.81
C       2.65      29.62      14.93
C       1.48      28.83      15.05
C      19.43       9.93      32.84
C      20.39       9.99      33.88
C      21.11      11.18      34.15
C      20.93      12.25      33.25
C      20.10      12.19      32.10
C      19.29      11.03      31.93
C      18.50       8.84      32.84
C      18.45       7.87      31.78
C      17.26       7.08      31.63
C      16.22       7.26      32.57
C      16.30       8.10      33.70
C      17.47       8.89      33.81
C      18.29      28.70      23.65
C      17.33      28.76      22.60
C      16.62      29.95      22.33
C      16.80      31.02      23.23
C      17.62      30.96      24.39
C      18.43      29.80      24.56
C      19.22      27.61      23.65
C      19.28      26.64      24.71
C      20.46      25.86      24.87
C      21.50      26.03      23.92
C      21.42      26.88      22.79
C      20.26      27.66      22.68
C       1.92      31.63      11.87
C       1.16      32.82      11.76
C       1.75      34.02      11.27
C       3.12      33.98      10.84
C      17.02       6.09      30.64
C      17.78       4.91      30.53
C      17.19       3.70      30.04
C      15.83       3.75      29.61
C      35.80      12.86       7.08
C      36.56      14.05       7.19
C      35.97      15.25       7.68
C      34.60      15.21       8.11
C      20.70      24.86      25.86
C      19.93      23.68      25.96
C      20.53      22.47      26.45
C      21.89      22.52      26.88
C      11.87       1.93      31.63
C      11.76       1.16      32.82
C      11.27       1.75      34.02
C      10.84       3.12      33.98
C      30.64      17.02       6.09
C      30.53      17.79       4.90
C      30.04      17.20       3.70
C      29.61      15.83       3.74
C       7.09      35.79      12.86
C       7.19      36.56      14.05
C       7.69      35.96      15.25
C       8.11      34.60      15.20
C      25.86      20.70      24.86
C      25.96      19.93      23.68
C      26.46      20.53      22.47
C      26.88      21.89      22.52
C      31.63      11.87       1.93
C      32.82      11.76       1.16
C      34.02      11.27       1.75
C      33.98      10.84       3.12
C       6.09      30.64      17.02
C       4.91      30.53      17.79
C       3.70      30.04      17.20
C       3.75      29.61      15.83
C      12.86       7.09      35.80
C      14.05       7.19      36.56
C      15.25       7.69      35.97
C      15.21       8.11      34.60
C      24.86      25.86      20.70
C      23.68      25.97      19.93
C      22.48      26.46      20.53
C      22.52      26.88      21.89
C      22.07      11.35      35.18
C      23.23      10.56      35.28
C      24.44      11.12      35.79
C      24.41      12.45      36.30
C      34.44      26.37      16.42
C      33.27      27.16      16.52
C      32.06      26.60      17.03
C      32.09      25.26      17.53
C       3.29       7.59       2.54
C       4.46       8.39       2.44
C       5.67       7.83       1.93
C       5.64       6.49       1.43
C      15.66      30.12      21.30
C      14.50      29.33      21.20
C      13.29      29.89      20.70
C      13.32      31.23      20.19
C      30.12      21.31      15.66
C      29.33      21.21      14.50
C      29.89      20.70      13.29
C      31.23      20.19      13.31
C       7.59       2.53       3.29
C       8.39       2.43       4.45
C       7.83       1.92       5.67
C       6.49       1.42       5.63
C      26.37      16.42      34.43
C      27.16      16.52      33.27
C      26.60      17.03      32.06
C      25.26      17.53      32.09
C      11.35      35.18      22.07
C      10.55      35.28      23.23
C      11.11      35.79      24.44
C      12.45      36.30      24.41
C       2.53       3.29       7.60
C       2.44       4.46       8.39
C       1.93       5.67       7.83
C       1.42       5.64       6.50
C      21.30      15.67      30.13
C      21.20      14.50      29.33
C      20.69      13.29      29.89
C      20.18      13.32      31.22
C      35.18      22.06      11.35
C      35.28      23.23      10.56
C      35.79      24.44      11.12
C      36.30      24.41      12.46
C      16.41      34.43      26.37
C      16.51      33.26      27.17
C      17.02      32.05      26.60
C      17.52      32.08      25.27
N       6.76      37.10       7.91
N       6.85       0.69      11.17
N      12.19       0.63      26.68
N      12.10      37.04      29.94
N      30.96      18.33      11.04
N      30.87      19.46       7.78
N      25.53      19.40      29.82
N      25.62      18.26      26.56
N       7.91       6.76      37.11
N      11.17       6.85       0.69
N      26.68      12.19       0.62
N      29.94      12.11      37.04
N      11.04      30.96      18.32
N       7.78      30.87      19.46
N      29.82      25.53      19.40
N      26.56      25.62      18.27
N      37.10       7.91       6.76
N       0.69      11.17       6.85
N       0.62      26.68      12.19
N      37.04      29.94      12.11
N      18.32      11.04      30.96
N      19.46       7.78      30.87
N      19.40      29.82      25.53
N      18.26      26.55      25.62
N       3.73      32.77      10.89
N       3.18      31.69      11.36
N       1.05      35.18      11.37
N      15.22       4.96      29.66
N      15.76       6.04      30.13
N      17.90       2.55      30.14
N      34.00      13.99       8.06
N      34.54      12.91       7.59
N      36.67      16.41       7.58
N      22.50      23.73      26.83
N      21.96      24.81      26.36
N      19.82      21.32      26.35
N      10.89       3.73      32.77
N      11.36       3.18      31.69
N      11.37       1.05      35.18
N      29.66      15.22       4.96
N      30.13      15.77       6.04
N      30.14      17.90       2.55
N       8.07      33.99      13.99
N       7.59      34.54      12.91
N       7.59      36.67      16.40
N      26.83      22.50      23.73
N      26.36      21.96      24.81
N      26.36      19.82      21.32
N      32.77      10.89       3.73
N      31.69      11.36       3.18
N      35.18      11.37       1.05
N       4.96      29.66      15.22
N       6.04      30.13      15.76
N       2.55      30.14      17.90
N      13.99       8.07      34.00
N      12.91       7.59      34.54
N      16.41       7.58      36.67
N      23.73      26.84      22.50
N      24.81      26.36      21.96
N      21.32      26.36      19.82
N      23.21      13.08      36.26
N      22.13      12.58      35.74
N      25.59      10.41      35.62
N      33.30      24.64      17.51
N      34.37      25.14      16.99
N      30.91      27.30      16.86
N       4.43       5.86       1.45
N       3.35       6.36       1.97
N       6.82       8.53       2.10
N      14.52      31.85      20.22
N      15.60      31.35      20.74
N      12.14      29.19      20.86
N      31.85      20.22      14.52
N      31.35      20.74      15.60
N      29.18      20.87      12.13
N       5.86       1.44       4.43
N       6.37       1.96       3.35
N       8.53       2.09       6.82
N      24.64      17.51      33.30
N      25.14      16.99      34.37
N      27.30      16.86      30.90
N      13.08      36.27      23.20
N      12.58      35.75      22.13
N      10.41      35.63      25.59
N       1.45       4.43       5.87
N       1.97       3.36       6.37
N       2.10       6.82       8.54
N      20.21      14.52      31.85
N      20.73      15.60      31.36
N      20.86      12.14      29.18
N      36.27      23.20      13.08
N      35.75      22.12      12.58
N      35.63      25.59      10.42
N      17.50      33.29      24.64
N      16.97      34.37      25.14
N      16.85      30.90      27.31
