93

Zn       3.80       7.20      11.75
Zn       0.39       1.08       5.99
H       2.12       9.31       4.59
H       3.99       9.14       2.96
H       3.61       3.03       2.48
H       1.74       3.02       4.17
H       4.87       9.33       0.96
H       6.20       9.77       2.06
H       6.57       2.18       0.27
H       7.59       1.16       1.34
H       1.08       3.36       9.71
H       3.10       4.81      10.11
H       1.16       4.54       1.60
H       8.57       3.14       1.42
H       6.52       8.84       8.84
H       0.62       7.27       6.93
H       7.36       4.61       8.96
H       2.17       3.23       7.23
H       4.12       3.35       8.76
H       3.90       9.48       9.35
H       1.96       9.53       7.76
H       4.86       3.13      10.83
H       6.24       2.78       9.76
H       6.94      10.33      11.53
H       7.94      11.37      10.46
H       1.05       9.01       2.15
H       3.03       7.50       1.72
H       1.42       7.97      10.13
H       8.88       9.45      10.34
H       6.39       3.58       3.04
H       0.23       5.42       5.18
H       7.17       7.80       2.61
H       9.27       4.11       7.00
H       9.13       8.34       4.98
C       2.51      10.20       4.11
C       3.54      10.11       3.18
C       3.82       0.88       2.54
C       3.24       2.11       2.92
C       2.22       2.10       3.85
C       5.59      10.11       1.21
C       7.17       1.26       0.34
C       9.46       4.16      11.42
C       1.12       4.05      10.55
C       2.23       4.86      10.75
C       1.08       3.80       0.81
C       9.37       3.02       0.69
C       5.59       6.45       9.82
C       6.81       6.70       8.97
C       7.15       7.99       8.57
C       8.32       8.20       7.82
C       9.15       7.11       7.50
C       7.63       5.61       8.63
C       8.69       9.56       7.35
C       8.81       5.82       7.91
C       2.55       2.33       7.71
C       3.63       2.40       8.58
C       4.19      11.62       9.23
C       3.56      10.41       8.90
C       2.49      10.44       8.02
C       5.62       2.39      10.58
C       7.52      11.26      11.47
C       9.44       8.33       0.38
C       1.09       8.35       1.28
C       2.17       7.52       1.06
C       1.36       8.69      10.95
C       9.68       9.51      11.08
C       5.49       5.86       1.78
C       6.63       5.71       2.75
C       6.97       4.47       3.30
C       8.05       4.36       4.19
C       8.81       5.51       4.51
C       7.40       6.84       3.06
C       8.44       3.01       4.70
C       8.49       6.75       3.94
C       6.31       0.03       0.00
N       1.76       0.96       4.43
N       2.31       5.76      11.76
N       2.04      11.59       7.45
N       2.22       6.66       0.02
O       5.33       5.29      10.22
O       4.87       7.50      10.11
O       9.37       9.60       6.22
O       8.40      10.59       8.00
O       8.41       3.36      11.15
O       4.75       0.94       1.58
O       0.25       4.80       7.60
O       5.24       6.98       1.26
O       4.81       4.78       1.51
O       9.14       2.96       5.82
O       8.16       1.98       4.06
O       8.42       9.16       0.65
O       5.16      11.55      10.16
O       9.29       7.86       4.13
