29

C       1.33       4.44      12.07
C       4.36       1.99       9.32
C      -4.33       0.63       9.34
C      -1.38      -2.22       6.95
C       1.48       3.32      11.09
C       0.38       2.64      10.57
C       0.58       1.66       9.60
C       1.88       1.45       9.14
C       2.92       2.16       9.73
C      -2.89       0.35       9.02
C      -1.87       1.17       9.45
C      -0.56       0.84       9.10
C      -0.37      -0.29       8.30
C      -1.48      -1.03       7.89
H      -5.50       1.95       9.90
H      -0.49       2.85      10.87
H       2.06       0.84       8.44
H      -2.05       1.95       9.97
H       0.50      -0.55       8.03
N       2.73       3.04      10.72
N      -2.72      -0.73       8.27
O       2.41       4.79      12.69
O       0.25       5.00      12.20
O       5.21       2.39      10.18
O       4.62       1.50       8.22
O      -5.20      -0.22       9.11
O      -4.54       1.81       9.82
O      -2.49      -2.66       6.50
O      -0.26      -2.65       6.69
