21

N       4.22      -0.77      10.30
N       2.18       0.07      10.17
H       0.02       0.69       8.77
H      -1.17       1.73       6.86
H       2.42       1.62       4.51
H       3.65       0.63       6.43
O      -1.33       2.93       4.73
O       0.35       2.50       3.30
H       4.67      -0.69       8.20
H       3.02      -0.50      12.07
H       1.21       0.31      10.49
C       0.56       0.89       7.84
C      -0.12       1.47       6.78
C       0.54       1.73       5.57
C       1.90       1.39       5.44
C       2.59       0.84       6.52
C       1.93       0.58       7.74
C       2.67       0.06       8.88
C       3.95      -0.48       8.98
C       3.13      -0.43      11.00
C      -0.18       2.41       4.46
