16

H      17.49      12.07       4.34
H      20.50      15.03       6.97
C      18.48      16.39       5.88
C      18.72      14.92       5.76
C      17.87      14.09       5.01
C      18.14      12.73       4.91
C      19.85      14.37       6.40
C      20.11      13.01       6.31
C      19.53      10.71       5.51
C      19.26      12.18       5.57
O      17.57      16.91       5.16
O      18.91      10.03       4.63
O      20.38      10.26       6.36
H      20.97      12.57       6.80
H      17.01      14.53       4.52
O      19.24      17.02       6.70
