16

H       8.35       4.14      14.53
O       7.72       4.69      16.91
H       5.91       7.63      15.03
O       6.17       6.37      17.02
C       6.99       5.61      16.39
C       7.11       5.85      14.92
C       7.86       5.00      14.09
C       7.96       5.27      12.73
C       6.47       6.98      14.37
C       6.56       7.24      13.01
H       8.53       4.62      12.07
C       7.30       6.39      12.18
C       7.36       6.66      10.71
O       6.51       7.51      10.26
O       8.24       6.03      10.03
H       6.07       8.10      12.57
