11

Zn       7.89       0.09       4.49
N       8.96       1.73       5.07
C       9.19      -1.88       2.59
O       7.35      -0.53       6.34
N       9.75      -2.25       4.70
C       6.17      -0.28       2.51
N       9.14      -1.38       3.81
C       9.23       2.11       6.30
N       9.29       2.75       4.19
O       7.02       0.66       2.77
C       6.30       0.18       6.58
