11

Zn       3.23       7.31       4.49
N       4.60       4.63       4.15
C       4.50       9.29       2.60
O       2.36       6.79       2.77
C       1.63       7.21       6.58
O       2.68       7.92       6.34
N       5.09       9.66       4.70
N       4.29       5.65       5.04
C       1.48       7.70       2.51
N       4.46       8.79       3.83
C       4.57       5.27       6.27
