24

H      16.63      12.82      16.20
H      16.89      12.39      18.67
H      11.68      11.17      22.31
H       9.41      11.17      21.29
H       8.73      12.24      14.94
H      10.76      12.71      13.52
N      14.86      12.13      19.01
N      12.68      11.58      20.53
N      10.09      11.57      19.36
N       9.81      12.04      16.70
N      12.08      12.59      15.11
N      14.56      12.64      16.24
C      13.64      12.12      18.41
C      12.49      11.84      19.21
C      11.21      11.83      18.63
C      11.06      12.08      17.23
C      12.19      12.35      16.43
C      13.50      12.38      17.03
C      15.76      12.64      16.83
C      15.91      12.39      18.21
C      11.57      11.36      21.25
C      10.28      11.36      20.67
C       9.72      12.27      15.38
C      10.85      12.54      14.59
