24

H       7.60       9.94       6.07
H       7.86      10.37       8.55
H       2.65      11.59      12.19
H       0.38      11.59      11.16
H      -0.30      10.52       4.81
H       1.73      10.04       3.39
C       4.61      10.63       8.28
C       3.46      10.91       9.08
C       2.18      10.92       8.50
C       2.03      10.67       7.10
C       3.16      10.40       6.31
C       4.47      10.38       6.90
C       6.73      10.12       6.71
C       6.88      10.37       8.08
C       2.54      11.40      11.12
C       1.25      11.40      10.54
C       0.69      10.48       5.25
C       1.82      10.21       4.46
N       5.83      10.63       8.88
N       3.65      11.17      10.40
N       1.07      11.18       9.23
N       0.78      10.71       6.57
N       3.05      10.16       4.98
N       5.53      10.11       6.11
