12

Zn       6.18       4.53       7.26
H       8.66       5.37       6.41
C       4.48       4.34       4.85
C       4.88       4.42       9.98
N       8.96       4.03       7.78
N       8.18       4.73       7.06
O       5.66       6.41       7.33
O       5.94       2.57       7.27
O       5.66       4.46       5.34
C       4.48       6.89       7.45
O       5.94       4.52       9.26
C       4.88       1.86       7.38
