32

H       6.08      17.26       0.11
H       6.92      15.78       0.59
H       4.32      15.44       0.69
H       3.96      14.29      -0.58
H       4.10      16.93      -1.46
H       5.49      16.90      -2.55
H       8.37      17.51      -0.54
H       7.44      17.28      -2.02
H      10.15      15.26      -2.93
H       9.91      16.96      -2.64
H       8.92      15.08       0.46
H      10.31      15.91      -0.25
N       5.63      15.49      -1.01
N       8.62      15.64      -1.54
O       6.65      13.23       0.27
O       4.96      13.22       1.75
O       4.34      14.18      -3.09
O       3.20      16.05      -3.68
O       7.32      15.66      -4.01
O       9.10      16.54      -5.05
O      11.07      13.50       0.13
O       9.77      13.10      -1.68
C       6.58      16.35      -0.28
C       4.79      14.77      -0.05
C       5.53      13.66       0.70
C       4.82      16.27      -1.96
C       4.06      15.42      -2.99
C       7.78      16.77      -1.11
C       9.37      16.01      -2.75
C       8.53      16.07      -4.02
C       9.51      15.19      -0.47
C      10.16      13.81      -0.69
