42

H       6.75       5.54      10.46
H      10.10       4.95      14.07
H      11.92       6.23      15.15
H      11.41       8.05      16.74
H       9.05       8.64      17.22
H       7.21       7.39      16.14
H       4.68       3.36      15.04
H       7.99       6.00      12.44
H       3.43       2.89      13.06
H       4.22       1.50       9.36
H       2.38       0.26       8.28
H       0.02       0.84       8.77
H      -0.50       2.67      10.36
H       1.33       3.94      11.44
C       4.01       3.58      11.11
C       5.40       3.94      14.48
C       6.03       4.96      11.03
C       5.24       4.07      13.12
C       6.18       4.82      12.39
C       2.91       2.83      10.46
C       3.19       1.77       9.57
C       2.15       1.06       8.96
C       0.82       1.39       9.24
C       0.53       2.43      10.14
C       1.57       3.14      10.75
C       8.52       6.07      15.05
C       9.86       5.76      14.76
C      10.89       6.47      15.37
C      10.60       7.50      16.26
C       9.27       7.83      16.54
C       8.23       7.12      15.93
C       6.48       4.48      16.55
C       4.95       4.42       8.96
C       4.97       4.33      10.39
C       6.46       4.57      15.12
C       7.28       5.42      13.02
C       4.15       3.47      12.49
C       7.42       5.32      14.40
O       5.36       4.44      17.17
O       6.06       4.45       8.34
O       7.58       4.44      17.17
O       3.84       4.45       8.33
