22

Cr       0.07      14.11      12.15
C       1.64      16.13      10.52
Cr       1.88      14.21      15.23
Cr       3.62      14.25      12.10
O       0.56      12.60      10.73
C      -0.27      12.15      14.60
O       3.24      15.67      15.10
O       4.56      15.82      13.20
O       2.77      15.62      10.95
O       1.86      14.19      13.16
O      -0.48      12.69      13.43
O       0.50      12.63      15.54
O       3.32      12.85      15.09
O       4.65      12.78      13.19
O       2.85      12.80      10.94
O       0.47      15.64      10.74
O      -0.56      15.51      13.44
O       0.41      15.67      15.55
C       4.30      12.38      14.38
C       1.78      12.20      10.53
C      -0.38      16.10      14.61
C       4.12      16.27      14.34
