10

Ag      13.56       0.02       6.03
C      14.69       2.72       7.78
C      12.46      -2.52       7.95
N      13.67       1.89       7.45
N      13.48      -1.72       7.56
C      12.66       2.37       8.20
N      13.51      -0.08       3.79
C      14.52      -2.19       8.29
C      12.55       0.40       2.96
C      14.46      -0.47       2.90
