10

Ag       0.07       6.82       3.85
C      -0.94       6.57       6.92
C       1.05       7.26       6.93
C       1.18       4.29       2.00
C      -1.03       9.52       2.19
N       0.16       5.12       2.29
N       0.00       8.71       2.52
N       0.08       6.87       6.07
C      -0.82       4.66       1.46
C       0.99       9.15       1.70
