10

Ag       6.97       0.21      35.80
C       4.24      -1.01      37.52
C       9.65       1.33      37.55
N       5.08       0.00      37.20
N       8.77       0.35      37.27
C       7.24      -0.84      32.73
N       6.89       0.19      33.55
C       9.25      -0.68      38.01
C       4.62       1.00      37.98
C       6.47       1.12      32.66
