10

C      11.36       7.83      18.23
C      15.98       5.95      18.08
C      13.15       7.82      12.89
C      13.98       5.89      12.87
Ag      13.61       6.89      15.96
C      11.02       5.82      17.75
C      16.33       7.96      17.56
N      11.83       6.85      17.44
N      15.51       6.93      17.27
N      13.60       6.86      13.73
