10

C       5.95      11.33      21.48
C       7.74      15.91      21.32
C       5.87      13.41      26.65
Ag       6.86      13.70      23.59
C       7.83      14.19      26.69
C       7.98      11.00      21.91
C       5.77      16.39      21.88
N       6.95      11.80      22.26
N       6.74      15.48      22.12
N       6.86      13.81      25.82
