10

H      -3.97       1.05      14.28
H      -6.38       2.97      14.27
O      -4.24       4.38      14.25
O      -2.43       3.09      14.53
O      -7.93       0.92      14.52
O      -6.12      -0.36      14.24
C      -3.70       3.23      14.34
C      -4.51       1.99      14.26
C      -6.66       0.78      14.33
C      -5.85       2.02      14.26
