14

Cd       3.88       7.00       3.60
O       1.42       8.05       6.07
Cd       0.32       7.00       4.44
O       3.51       7.31       5.80
O       5.40       5.53       4.43
C       2.61       7.90       6.41
O       6.62       5.68       6.24
C       5.62       5.25       5.63
C       6.18       7.90       1.63
C       2.06       5.25       2.41
O       4.98       8.05       1.97
O       7.08       7.31       2.24
O       3.06       5.68       1.80
O       1.83       5.53       3.61
