14

Cd       3.25       1.48      12.48
O       1.73       0.02      11.65
C       1.51      -0.27      10.45
O       0.51       0.16       9.83
Cd      -0.32       1.48      11.64
O       5.71       2.53      10.01
O       3.62       1.79      10.28
C       4.51       2.38       9.67
C       5.07      -0.27      13.67
O       4.07       0.16      14.28
O       5.30       0.02      12.46
C       0.95       2.38      14.45
O       2.15       2.53      14.10
O       0.05       1.79      13.83
