29

H       2.86      -1.05       4.06
H       2.25      -3.05       2.73
H       6.24      -4.62       3.22
H       6.82      -2.65       4.64
H       2.00      -3.56       0.44
H       2.19      -2.40      -1.76
H       5.86      -4.51      -2.56
H       5.74      -5.58      -0.31
S       3.77      -5.32       1.84
O       4.31       0.38       5.41
O       5.05      -2.96      -4.41
O       6.42      -0.32       5.64
O       3.30      -1.69      -3.77
O       4.80      -6.34       1.96
O       2.36      -5.59       2.13
C       5.23      -0.51       5.20
C       4.89      -1.71       4.40
C       3.60      -1.82       3.86
C       3.26      -2.94       3.11
C       4.23      -3.92       2.86
C       5.51      -3.83       3.40
C       5.84      -2.73       4.19
C       3.87      -4.61       0.20
C       2.85      -3.73      -0.20
C       2.96      -3.09      -1.43
C       4.05      -3.35      -2.28
C       5.04      -4.27      -1.89
C       4.96      -4.89      -0.63
C       4.14      -2.62      -3.57
