29

H       6.94       2.79      10.04
H       7.09       3.30      12.51
H       3.80       0.62      13.24
H       3.70       0.08      10.78
H       5.66       5.18      13.61
H       4.04       7.09      13.39
H       1.06       4.79      15.46
H       2.67       2.88      15.68
S       5.37       2.55      14.70
O       4.17       0.48       8.42
O       1.94       8.28      13.87
O       5.91       1.88       8.01
O       0.25       6.91      14.54
C       5.11       1.24       8.80
C       5.29       1.44      10.27
C       6.26       2.32      10.75
C       6.33       2.62      12.11
C       5.41       2.02      12.99
C       4.47       1.09      12.53
C       4.42       0.79      11.17
C       4.23       3.92      14.61
O       6.69       3.09      15.01
O       4.75       1.48      15.48
C       4.64       5.10      13.98
C       3.75       6.16      13.86
C       2.95       3.79      15.16
C       2.06       4.85      15.04
C       2.44       6.03      14.37
C       1.47       7.15      14.25
