1024

H      34.57      36.06       1.37
H       2.15       1.25      36.08
H       2.13      34.27      34.99
H      34.39      35.15      34.33
H       0.15      31.76       3.07
H       0.42       3.14      31.88
H       2.34       4.09      34.67
H       3.03      32.57       0.91
H      34.12      34.93       3.94
H      33.83       1.22      32.36
H      19.68       0.13      19.44
H      15.96      34.94      18.03
H      15.97       1.91      16.94
H      19.85       1.04      16.26
H      17.96       4.43      21.13
H      17.71      33.03      13.83
H      15.77      32.07      16.60
H      15.08       3.61      18.98
H      20.13       1.27      22.01
H      20.41      34.96      14.30
H       9.12      25.01      10.31
H       7.85      28.83       8.87
H      10.94      28.89       8.14
H      10.10      24.88       7.29
H      13.27      26.77      12.30
H       6.18      27.04       4.57
H       5.23      29.26       7.34
H      12.25      29.91      10.43
H      10.22      24.47      12.96
H       7.89      24.35       5.16
H       9.00      11.19      28.36
H      10.29       7.36      26.95
H       7.20       7.28      26.21
H       8.03      11.29      25.33
H       4.85       9.42      30.35
H      11.98       9.12      22.66
H      12.95       6.98      25.40
H       5.86       6.30      28.49
H       7.92      11.76      30.96
H      10.25      11.82      23.22
H      26.96      10.69      25.90
H      28.32       6.89      27.18
H      25.29       6.85      28.26
H      26.22      10.80      29.05
H      22.69       8.88      24.17
H      30.32       8.51      31.38
H      31.12       6.49      28.59
H      23.77       5.84      26.09
H      25.81      11.25      23.42
H      28.49      11.31      30.94
H      27.29      25.50       7.83
H      25.93      29.31       9.12
H      28.96      29.34      10.19
H      28.03      25.39      10.97
H      31.55      27.31       6.10
H      23.94      27.69      13.32
H      23.13      29.71      10.53
H      30.48      30.36       8.01
H      28.44      24.94       5.34
H      25.76      24.89      12.88
H      16.33      17.99      19.33
H      20.12      19.31      17.97
H      20.18      16.22      17.06
H      16.24      17.06      16.21
H      18.03      13.81      21.22
H      18.44      21.12      13.70
H      20.49      22.02      16.58
H      21.20      14.81      19.28
H      16.10      16.65      22.17
H      15.97      19.50      13.95
H       1.80      18.20       1.25
H      34.14      16.86      36.05
H      34.06      19.96      35.13
H       1.87      19.13      34.26
H       0.09      22.38       3.15
H      35.80      15.05      31.78
H      33.81      14.13      34.64
H      33.06      21.39       1.23
H       2.06      19.51       4.08
H       2.13      16.68      32.00
H      33.48      33.14       5.82
H      32.28      30.98       1.36
H      31.74      32.97       0.02
H      31.05      33.84       1.54
H      29.37      32.07       1.79
H      30.06      31.20       0.27
H      20.76       3.06      23.89
H      21.97       5.22      19.43
H      22.50       3.22      18.09
H      23.20       2.35      19.61
H      24.88       4.12      19.86
H      24.19       5.00      18.34
H      11.90      23.72      14.78
H      14.42      23.04      10.38
H      12.56      22.39       8.89
H      11.68      21.53      10.32
H      13.59      20.01      10.60
H      14.47      20.87       9.17
H       6.22      12.48      32.82
H       3.68      13.14      28.44
H       5.53      13.78      26.94
H       6.42      14.65      28.35
H       4.51      16.16      28.63
H       3.61      15.30      27.22
H      20.95      33.22      12.36
H      22.03      30.86      16.75
H      22.64      32.78      18.16
H      23.39      33.67      16.68
H      25.00      31.85      16.38
H      24.25      30.95      17.86
H      33.29       2.96      30.42
H      32.23       5.34      34.80
H      31.62       3.42       0.09
H      30.87       2.52      34.74
H      29.26       4.35      34.45
H      30.01       5.25      35.92
H       6.24      23.64       3.32
H       3.61      23.09       7.67
H       5.41      22.38       9.20
H       6.29      21.47       7.81
H       4.33      20.03       7.50
H       3.44      20.94       8.90
H      11.90      12.55      21.38
H      14.54      13.09      25.73
H      12.74      13.78      27.27
H      11.85      14.69      25.88
H      13.80      16.14      25.58
H      14.69      15.23      26.97
H       3.02       3.42      30.73
H       4.73       5.19      35.30
H       5.45       3.03       0.14
H       5.87       2.36      34.56
H       7.50       4.16      34.26
H       7.09       4.84      35.96
H      15.12      32.76      12.68
H      13.38      30.99      17.24
H      12.67      33.15      18.21
H      12.25      33.82      16.50
H      10.61      32.03      16.19
H      11.02      31.35      17.89
H      23.94      11.75      21.46
H      21.82      12.95      25.94
H      23.83      13.50      27.25
H      24.68      14.19      25.72
H      22.90      15.87      25.48
H      22.05      15.18      27.02
H      30.31      24.43       3.39
H      32.42      23.25       7.88
H      30.41      22.70       9.19
H      29.57      22.00       7.66
H      31.34      20.33       7.43
H      32.19      21.02       8.97
H      15.03       3.47      23.35
H      13.16       5.34      18.89
H      12.35       3.22      17.91
H      11.97       2.54      19.63
H      10.40       4.37      20.02
H      10.77       5.07      18.31
H       3.10      32.71       5.28
H       4.95      30.85       0.80
H       5.75      32.97      35.95
H       6.13      33.66       1.54
H       7.71      31.83       1.92
H       7.33      31.14       0.21
H      30.34      11.79      32.86
H      32.51      12.89      28.37
H      30.52      13.45      27.04
H      29.68      14.19      28.56
H      31.48      15.83      28.77
H      32.33      15.11      27.26
H      23.90      24.39      14.78
H      21.75      23.30      10.29
H      23.75      22.75       8.96
H      24.59      22.01      10.48
H      22.79      20.36      10.68
H      21.94      21.09       9.17
H      34.57      36.06      14.37
H       2.15       1.25      12.95
H       2.13      34.27      11.86
H      34.39      35.15      11.20
H       0.15      31.76      16.07
H       0.42       3.14       8.75
H       2.34       4.09      11.53
H       3.03      32.57      13.91
H      34.12      34.93      16.94
H      33.83       1.22       9.23
H      19.68       0.13      32.44
H      15.96      34.94      31.03
H      15.97       1.91      29.94
H      19.85       1.04      29.26
H      17.96       4.43      34.13
H      17.71      33.03      26.83
H      15.77      32.07      29.60
H      15.08       3.61      31.98
H      20.13       1.27      35.01
H      20.41      34.96      27.30
H       9.12      25.01      23.31
H       7.85      28.83      21.87
H      10.94      28.89      21.14
H      10.10      24.88      20.29
H      13.27      26.77      25.30
H       6.18      27.04      17.57
H       5.23      29.26      20.34
H      12.25      29.91      23.43
H      10.22      24.47      25.96
H       7.89      24.35      18.16
H       9.00      11.19       5.23
H      10.29       7.36       3.81
H       7.20       7.28       3.08
H       8.03      11.29       2.20
H       4.85       9.42       7.22
H      11.98       9.12      35.66
H      12.95       6.98       2.26
H       5.86       6.30       5.36
H       7.92      11.76       7.83
H      10.25      11.82       0.09
H      26.96      10.69       2.77
H      28.32       6.89       4.05
H      25.29       6.85       5.13
H      26.22      10.80       5.92
H      22.69       8.88       1.04
H      30.32       8.51       8.25
H      31.12       6.49       5.46
H      23.77       5.84       2.95
H      25.81      11.25       0.28
H      28.49      11.31       7.81
H      27.29      25.50      20.83
H      25.93      29.31      22.12
H      28.96      29.34      23.19
H      28.03      25.39      23.97
H      31.55      27.31      19.10
H      23.94      27.69      26.32
H      23.13      29.71      23.53
H      30.48      30.36      21.01
H      28.44      24.94      18.34
H      25.76      24.89      25.88
H      16.33      17.99      32.33
H      20.12      19.31      30.97
H      20.18      16.22      30.06
H      16.24      17.06      29.21
H      18.03      13.81      34.22
H      18.44      21.12      26.70
H      20.49      22.02      29.58
H      21.20      14.81      32.28
H      16.10      16.65      35.17
H      15.97      19.50      26.95
H       1.80      18.20      14.25
H      34.14      16.86      12.92
H      34.06      19.96      12.00
H       1.87      19.13      11.13
H       0.09      22.38      16.15
H      35.80      15.05       8.65
H      33.81      14.13      11.51
H      33.06      21.39      14.23
H       2.06      19.51      17.08
H       2.13      16.68       8.87
H      33.48      33.14      18.82
H      32.28      30.98      14.36
H      31.74      32.97      13.02
H      31.05      33.84      14.54
H      29.37      32.07      14.79
H      30.06      31.20      13.27
H      20.76       3.06       0.76
H      21.97       5.22      32.43
H      22.50       3.22      31.09
H      23.20       2.35      32.61
H      24.88       4.12      32.86
H      24.19       5.00      31.34
H      11.90      23.72      27.78
H      14.42      23.04      23.38
H      12.56      22.39      21.89
H      11.68      21.53      23.32
H      13.59      20.01      23.60
H      14.47      20.87      22.17
H       6.22      12.48       9.69
H       3.68      13.14       5.31
H       5.53      13.78       3.81
H       6.42      14.65       5.22
H       4.51      16.16       5.50
H       3.61      15.30       4.09
H      20.95      33.22      25.36
H      22.03      30.86      29.75
H      22.64      32.78      31.16
H      23.39      33.67      29.68
H      25.00      31.85      29.38
H      24.25      30.95      30.86
H      33.29       2.96       7.28
H      32.23       5.34      11.67
H      31.62       3.42      13.09
H      30.87       2.52      11.61
H      29.26       4.35      11.32
H      30.01       5.25      12.79
H       6.24      23.64      16.32
H       3.61      23.09      20.67
H       5.41      22.38      22.20
H       6.29      21.47      20.81
H       4.33      20.03      20.50
H       3.44      20.94      21.90
H      11.90      12.55      34.38
H      14.54      13.09       2.60
H      12.74      13.78       4.14
H      11.85      14.69       2.75
H      13.80      16.14       2.45
H      14.69      15.23       3.84
H       3.02       3.42       7.60
H       4.73       5.19      12.17
H       5.45       3.03      13.14
H       5.87       2.36      11.43
H       7.50       4.16      11.13
H       7.09       4.84      12.83
H      15.12      32.76      25.68
H      13.38      30.99      30.24
H      12.67      33.15      31.21
H      12.25      33.82      29.50
H      10.61      32.03      29.19
H      11.02      31.35      30.89
H      23.94      11.75      34.46
H      21.82      12.95       2.81
H      23.83      13.50       4.12
H      24.68      14.19       2.59
H      22.90      15.87       2.35
H      22.05      15.18       3.88
H      30.31      24.43      16.39
H      32.42      23.25      20.88
H      30.41      22.70      22.19
H      29.57      22.00      20.66
H      31.34      20.33      20.44
H      32.19      21.02      21.97
H      15.03       3.47       0.22
H      13.16       5.34      31.89
H      12.35       3.22      30.91
H      11.97       2.54      32.63
H      10.40       4.37      33.02
H      10.77       5.07      31.31
H       3.10      32.71      18.28
H       4.95      30.85      13.80
H       5.75      32.97      12.82
H       6.13      33.66      14.54
H       7.71      31.83      14.92
H       7.33      31.14      13.21
H      30.34      11.79       9.73
H      32.51      12.89       5.24
H      30.52      13.45       3.91
H      29.68      14.19       5.43
H      31.48      15.83       5.64
H      32.33      15.11       4.13
H      23.90      24.39      27.78
H      21.75      23.30      23.29
H      23.75      22.75      21.96
H      24.59      22.01      23.48
H      22.79      20.36      23.68
H      21.94      21.09      22.17
C       0.29      35.56       0.47
C      35.37      35.42       1.41
C      35.39      34.41       2.39
C       0.38      33.56       2.49
C       1.47      33.70       1.59
C       1.40      34.67       0.56
C       0.24       0.47      35.61
C      35.24       0.65      34.77
C      35.20       1.71      33.82
C       0.21       2.55      33.67
C       1.35       2.36      34.49
C       1.34       1.35      35.46
C       2.47       3.16      34.35
C       2.56      32.85       1.73
C      34.32      34.25       3.24
C      34.10       1.92      33.02
C      17.82       0.63      18.54
C      18.88       0.77      19.48
C      18.86       1.78      20.46
C      17.73       2.64      20.55
C      16.64       2.49      19.66
C      16.71       1.51      18.63
C      17.88      35.72      17.55
C      19.00      35.54      16.71
C      19.04      34.47      15.77
C      17.91      33.63      15.62
C      16.77      33.82      16.43
C      16.78      34.84      17.41
C      15.66      33.01      16.31
C      15.55       3.33      19.81
C      19.93       1.95      21.31
C      20.15      34.27      14.96
C       9.59      26.93       9.55
C       9.72      25.82      10.43
C      10.69      25.81      11.45
C      11.49      26.95      11.67
C      11.33      28.11      10.87
C      10.43      28.06       9.77
C       8.62      26.89       8.48
C       8.46      25.75       7.64
C       7.45      25.72       6.64
C       6.67      26.88       6.40
C       6.84      28.04       7.20
C       7.78      28.01       8.26
C       6.14      29.20       6.95
C      12.07      29.25      11.16
C      10.87      24.68      12.23
C       7.23      24.60       5.87
C       8.54       9.26      27.60
C       8.40      10.37      28.48
C       7.43      10.39      29.50
C       6.64       9.24      29.72
C       6.80       8.08      28.92
C       7.70       8.13      27.82
C       9.52       9.29      26.54
C       9.68      10.42      25.69
C      10.69      10.45      24.70
C      11.48       9.29      24.48
C      11.31       8.14      25.28
C      10.36       8.18      26.33
C      12.02       6.98      25.05
C       6.06       6.94      29.23
C       7.24      11.52      30.27
C      10.91      11.57      23.92
C      26.53       8.79      26.73
C      26.34       9.88      25.84
C      25.31       9.88      24.88
C      24.50       8.73      24.73
C      24.70       7.59      25.56
C      25.67       7.66      26.59
C      27.59       8.81      27.69
C      27.83       9.92      28.55
C      28.91       9.92      29.47
C      29.71       8.75      29.60
C      29.47       7.63      28.78
C      28.45       7.69      27.81
C      30.19       6.45      28.92
C      23.96       6.44      25.32
C      25.11      10.98      24.06
C      29.17      11.01      30.28
C      27.72      27.41       8.66
C      27.91      26.31       7.77
C      28.94      26.32       6.80
C      29.75      27.47       6.66
C      29.54      28.60       7.48
C      28.58      28.54       8.52
C      26.66      27.38       9.62
C      26.43      26.27      10.48
C      25.35      26.28      11.40
C      24.55      27.44      11.54
C      24.79      28.57      10.72
C      25.80      28.51       9.74
C      24.07      29.74      10.86
C      30.29      29.75       7.25
C      29.14      25.21       5.99
C      25.08      25.18      12.21
C      18.24      17.52      18.53
C      17.15      17.38      19.42
C      17.15      16.40      20.44
C      18.30      15.59      20.61
C      19.43      15.75      19.78
C      19.37      16.67      18.71
C      18.20      18.53      17.51
C      17.08      18.70      16.64
C      17.07      19.73      15.67
C      18.21      20.55      15.50
C      19.35      20.38      16.32
C      19.31      19.40      17.34
C      20.50      21.12      16.15
C      20.57      14.98      20.03
C      16.07      16.24      21.27
C      15.98      19.93      14.85
C      36.02      18.67       0.46
C       0.98      18.82       1.34
C       0.98      19.79       2.36
C      35.96      20.60       2.55
C      34.82      20.43       1.72
C      34.88      19.51       0.65
C      36.05      17.65      35.57
C       1.03      17.49      34.70
C       1.05      16.45      33.73
C      36.04      15.63      33.57
C      34.91      15.80      34.40
C      34.94      16.78      35.41
C      33.76      15.04      34.24
C      33.68      21.19       1.98
C       2.07      19.96       3.19
C       2.13      16.25      32.90
C      31.69      31.84       3.31
C      32.69      32.64       3.91
C      32.74      32.64       5.33
C      30.91      31.13       5.45
C      31.59      31.66       1.84
C      30.22      31.81       1.16
C      31.27      32.91       1.00
C      22.56       4.35      21.38
C      21.56       3.56      21.98
C      21.50       3.56      23.39
C      23.33       5.06      23.51
C      22.66       4.53      19.91
C      24.03       4.38      19.23
C      22.98       3.28      19.07
C      13.51      22.25      12.24
C      12.56      23.10      12.85
C      12.50      23.07      14.27
C      14.25      21.47      14.37
C      13.77      22.26      10.78
C      13.79      20.92      10.02
C      12.60      21.87       9.85
C       4.60      13.94      30.29
C       5.55      13.09      30.90
C       5.62      13.13      32.32
C       3.87      14.73      32.42
C       4.33      13.92      28.83
C       4.30      15.25      28.07
C       5.49      14.30      27.89
C      22.68      31.77      14.84
C      21.71      32.62      14.25
C      21.67      32.68      12.84
C      23.47      31.14      12.68
C      22.76      31.53      16.29
C      24.13      31.60      17.00
C      23.12      32.74      17.18
C      31.57       4.42      32.89
C      32.54       3.57      32.31
C      32.57       3.51      30.90
C      30.79       5.06      30.74
C      31.50       4.66      34.35
C      30.13       4.60      35.06
C      31.14       3.46      35.24
C       4.53      22.24       5.84
C       5.51      23.06       5.23
C       5.61      23.01       3.82
C       3.83      21.45       3.70
C       4.24      22.28       7.29
C       4.14      20.95       8.06
C       5.36      21.85       8.25
C      13.61      13.94      23.90
C      12.63      13.12      23.30
C      12.53      13.17      21.89
C      14.31      14.74      21.77
C      13.91      13.90      25.35
C      13.99      15.22      26.13
C      12.78      14.31      26.31
C       4.98       4.58      33.18
C       3.94       3.82      32.60
C       3.75       3.95      31.21
C       5.48       5.56      31.07
C       5.31       4.55      34.63
C       6.77       4.34      35.05
C       5.75       3.21      35.24
C      13.14      31.60      15.12
C      14.19      32.36      14.55
C      14.38      32.23      13.15
C      12.64      30.63      13.00
C      12.81      31.63      16.56
C      11.34      31.85      16.98
C      12.36      32.97      17.18
C      22.66      13.54      23.98
C      23.45      12.54      23.37
C      23.44      12.49      21.95
C      21.93      14.32      21.84
C      22.50      13.65      25.44
C      22.66      15.02      26.12
C      23.76      13.97      26.27
C      31.59      22.65       5.92
C      30.80      23.65       5.31
C      30.81      23.70       3.89
C      32.32      21.87       3.79
C      31.75      22.55       7.39
C      31.59      21.18       8.07
C      30.48      22.23       8.21
C      12.98       4.70      21.00
C      14.05       3.93      21.52
C      14.29       4.02      22.91
C      12.55       5.61      23.17
C      12.59       4.71      19.58
C      11.11       4.54      19.21
C      12.09       3.39      18.96
C       5.14      31.49       2.91
C       4.07      32.26       3.44
C       3.84      32.16       4.83
C       5.58      30.57       5.07
C       5.52      31.48       1.49
C       7.00      31.66       1.11
C       6.01      32.80       0.87
C      31.67      13.53      30.32
C      30.87      12.54      30.94
C      30.86      12.51      32.35
C      32.38      14.34      32.45
C      31.85      13.61      28.85
C      31.71      14.97      28.15
C      30.59      13.94      28.02
C      22.58      22.66      12.23
C      23.39      23.65      12.86
C      23.39      23.67      14.27
C      21.88      21.85      14.36
C      22.42      22.59      10.77
C      22.55      21.22      10.06
C      23.67      22.26       9.94
C       0.29      35.56      13.47
C      35.37      35.42      14.41
C      35.39      34.41      15.39
C       0.38      33.56      15.49
C       1.47      33.70      14.59
C       1.40      34.67      13.56
C       0.24       0.47      12.48
C      35.24       0.65      11.63
C      35.20       1.71      10.69
C       0.21       2.55      10.54
C       1.35       2.36      11.36
C       1.34       1.35      12.33
C       2.47       3.16      11.22
C       2.56      32.85      14.73
C      34.32      34.25      16.24
C      34.10       1.92       9.89
C      17.82       0.63      31.54
C      18.88       0.77      32.48
C      18.86       1.78      33.46
C      17.73       2.64      33.55
C      16.64       2.49      32.66
C      16.71       1.51      31.63
C      17.88      35.72      30.55
C      19.00      35.54      29.71
C      19.04      34.47      28.77
C      17.91      33.63      28.62
C      16.77      33.82      29.43
C      16.78      34.84      30.41
C      15.66      33.01      29.31
C      15.55       3.33      32.81
C      19.93       1.95      34.31
C      20.15      34.27      27.96
C       9.59      26.93      22.55
C       9.72      25.82      23.43
C      10.69      25.81      24.45
C      11.49      26.95      24.67
C      11.33      28.11      23.87
C      10.43      28.06      22.77
C       8.62      26.89      21.48
C       8.46      25.75      20.64
C       7.45      25.72      19.64
C       6.67      26.88      19.40
C       6.84      28.04      20.20
C       7.78      28.01      21.26
C       6.14      29.20      19.95
C      12.07      29.25      24.16
C      10.87      24.68      25.23
C       7.23      24.60      18.87
C       8.54       9.26       4.47
C       8.40      10.37       5.34
C       7.43      10.39       6.37
C       6.64       9.24       6.59
C       6.80       8.08       5.79
C       7.70       8.13       4.69
C       9.52       9.29       3.41
C       9.68      10.42       2.56
C      10.69      10.45       1.57
C      11.48       9.29       1.35
C      11.31       8.14       2.15
C      10.36       8.18       3.20
C      12.02       6.98       1.91
C       6.06       6.94       6.10
C       7.24      11.52       7.14
C      10.91      11.57       0.79
C      26.53       8.79       3.60
C      26.34       9.88       2.71
C      25.31       9.88       1.75
C      24.50       8.73       1.60
C      24.70       7.59       2.42
C      25.67       7.66       3.46
C      27.59       8.81       4.56
C      27.83       9.92       5.42
C      28.91       9.92       6.34
C      29.71       8.75       6.47
C      29.47       7.63       5.65
C      28.45       7.69       4.68
C      30.19       6.45       5.79
C      23.96       6.44       2.19
C      25.11      10.98       0.93
C      29.17      11.01       7.15
C      27.72      27.41      21.66
C      27.91      26.31      20.77
C      28.94      26.32      19.80
C      29.75      27.47      19.66
C      29.54      28.60      20.48
C      28.58      28.54      21.52
C      26.66      27.38      22.62
C      26.43      26.27      23.48
C      25.35      26.28      24.40
C      24.55      27.44      24.54
C      24.79      28.57      23.72
C      25.80      28.51      22.74
C      24.07      29.74      23.86
C      30.29      29.75      20.25
C      29.14      25.21      18.99
C      25.08      25.18      25.21
C      18.24      17.52      31.53
C      17.15      17.38      32.42
C      17.15      16.40      33.44
C      18.30      15.59      33.61
C      19.43      15.75      32.78
C      19.37      16.67      31.71
C      18.20      18.53      30.51
C      17.08      18.70      29.64
C      17.07      19.73      28.67
C      18.21      20.55      28.50
C      19.35      20.38      29.32
C      19.31      19.40      30.34
C      20.50      21.12      29.15
C      20.57      14.98      33.03
C      16.07      16.24      34.27
C      15.98      19.93      27.85
C      36.02      18.67      13.46
C       0.98      18.82      14.34
C       0.98      19.79      15.36
C      35.96      20.60      15.55
C      34.82      20.43      14.72
C      34.88      19.51      13.65
C      36.05      17.65      12.44
C       1.03      17.49      11.57
C       1.05      16.45      10.60
C      36.04      15.63      10.44
C      34.91      15.80      11.27
C      34.94      16.78      12.28
C      33.76      15.04      11.11
C      33.68      21.19      14.98
C       2.07      19.96      16.19
C       2.13      16.25       9.77
C      31.69      31.84      16.31
C      32.69      32.64      16.91
C      32.74      32.64      18.33
C      30.91      31.13      18.45
C      31.59      31.66      14.84
C      30.22      31.81      14.16
C      31.27      32.91      14.00
C      22.56       4.35      34.38
C      21.56       3.56      34.98
C      21.50       3.56       0.26
C      23.33       5.06       0.38
C      22.66       4.53      32.91
C      24.03       4.38      32.23
C      22.98       3.28      32.07
C      13.51      22.25      25.24
C      12.56      23.10      25.85
C      12.50      23.07      27.27
C      14.25      21.47      27.37
C      13.77      22.26      23.78
C      13.79      20.92      23.02
C      12.60      21.87      22.85
C       4.60      13.94       7.16
C       5.55      13.09       7.77
C       5.62      13.13       9.18
C       3.87      14.73       9.29
C       4.33      13.92       5.70
C       4.30      15.25       4.94
C       5.49      14.30       4.76
C      22.68      31.77      27.84
C      21.71      32.62      27.25
C      21.67      32.68      25.84
C      23.47      31.14      25.68
C      22.76      31.53      29.29
C      24.13      31.60      30.00
C      23.12      32.74      30.18
C      31.57       4.42       9.76
C      32.54       3.57       9.18
C      32.57       3.51       7.77
C      30.79       5.06       7.61
C      31.50       4.66      11.22
C      30.13       4.60      11.93
C      31.14       3.46      12.11
C       4.53      22.24      18.84
C       5.51      23.06      18.23
C       5.61      23.01      16.82
C       3.83      21.45      16.70
C       4.24      22.28      20.29
C       4.14      20.95      21.06
C       5.36      21.85      21.25
C      13.61      13.94       0.77
C      12.63      13.12       0.16
C      12.53      13.17      34.89
C      14.31      14.74      34.77
C      13.91      13.90       2.22
C      13.99      15.22       3.00
C      12.78      14.31       3.18
C       4.98       4.58      10.05
C       3.94       3.82       9.47
C       3.75       3.95       8.08
C       5.48       5.56       7.93
C       5.31       4.55      11.49
C       6.77       4.34      11.92
C       5.75       3.21      12.11
C      13.14      31.60      28.12
C      14.19      32.36      27.55
C      14.38      32.23      26.15
C      12.64      30.63      26.00
C      12.81      31.63      29.56
C      11.34      31.85      29.98
C      12.36      32.97      30.18
C      22.66      13.54       0.85
C      23.45      12.54       0.24
C      23.44      12.49      34.95
C      21.93      14.32      34.84
C      22.50      13.65       2.31
C      22.66      15.02       2.99
C      23.76      13.97       3.14
C      31.59      22.65      18.92
C      30.80      23.65      18.31
C      30.81      23.70      16.89
C      32.32      21.87      16.79
C      31.75      22.55      20.39
C      31.59      21.18      21.07
C      30.48      22.23      21.21
C      12.98       4.70      34.00
C      14.05       3.93      34.52
C      14.29       4.02      35.91
C      12.55       5.61       0.04
C      12.59       4.71      32.58
C      11.11       4.54      32.21
C      12.09       3.39      31.96
C       5.14      31.49      15.91
C       4.07      32.26      16.44
C       3.84      32.16      17.83
C       5.58      30.57      18.07
C       5.52      31.48      14.49
C       7.00      31.66      14.11
C       6.01      32.80      13.87
C      31.67      13.53       7.19
C      30.87      12.54       7.81
C      30.86      12.51       9.22
C      32.38      14.34       9.32
C      31.85      13.61       5.72
C      31.71      14.97       5.02
C      30.59      13.94       4.89
C      22.58      22.66      25.23
C      23.39      23.65      25.86
C      23.39      23.67      27.27
C      21.88      21.85      27.36
C      22.42      22.59      23.77
C      22.55      21.22      23.06
C      23.67      22.26      22.94
N      31.87      31.88       6.05
N      30.85      31.12       4.09
N      33.66      33.14       3.18
N      30.12      30.31       6.09
N      22.37       4.31      24.11
N      23.40       5.08      22.16
N      20.58       3.05      21.24
N      24.13       5.89      24.16
N      13.35      22.29      14.97
N      14.33      21.49      13.01
N      11.99      24.07      12.15
N      15.18      20.91      15.11
N       4.77      13.91      33.02
N       3.78      14.70      31.07
N       6.11      12.12      30.20
N       2.94      15.29      33.17
N      22.53      31.94      12.10
N      23.52      31.06      14.03
N      20.74      33.13      15.00
N      24.27      30.35      11.99
N      31.71       4.25      30.16
N      30.74       5.13      32.09
N      33.51       3.06      33.05
N      29.99       5.85      30.05
N       4.75      22.24       3.10
N       3.71      21.49       5.05
N       6.09      24.02       5.94
N       2.88      20.92       2.94
N      13.38      13.95      21.17
N      14.42      14.70      23.12
N      12.05      12.15      24.00
N      15.24      15.29      21.01
N       4.51       4.81      30.49
N       5.70       5.43      32.40
N       3.13       2.99      33.25
N       6.21       6.45      30.42
N      13.63      31.37      12.43
N      12.42      30.76      14.33
N      14.99      33.19      15.20
N      11.92      29.74      12.35
N      22.68      13.36      21.24
N      21.93      14.38      23.20
N      23.97      11.56      24.10
N      21.10      15.12      21.20
N      31.58      22.83       3.18
N      32.32      21.81       5.15
N      30.28      24.63       6.03
N      33.16      21.07       3.16
N      13.55       4.85      23.69
N      12.28       5.52      21.84
N      14.80       3.08      20.83
N      11.81       6.44      23.89
N       4.58      31.32       5.60
N       5.84      30.67       3.74
N       3.32      33.10       2.76
N       6.32      29.73       5.78
N      31.61      13.39      33.06
N      32.40      14.38      31.09
N      30.33      11.57      30.22
N      33.17      15.17      33.10
N      22.64      22.79      14.98
N      21.86      21.81      13.00
N      23.93      24.62      12.14
N      21.08      21.01      15.00
N      31.87      31.88      19.05
N      30.85      31.12      17.09
N      33.66      33.14      16.18
N      30.12      30.31      19.09
N      22.37       4.31       0.98
N      23.40       5.08      35.16
N      20.58       3.05      34.24
N      24.13       5.89       1.03
N      13.35      22.29      27.97
N      14.33      21.49      26.01
N      11.99      24.07      25.15
N      15.18      20.91      28.11
N       4.77      13.91       9.89
N       3.78      14.70       7.93
N       6.11      12.12       7.07
N       2.94      15.29      10.04
N      22.53      31.94      25.10
N      23.52      31.06      27.03
N      20.74      33.13      28.00
N      24.27      30.35      24.99
N      31.71       4.25       7.03
N      30.74       5.13       8.96
N      33.51       3.06       9.92
N      29.99       5.85       6.92
N       4.75      22.24      16.10
N       3.71      21.49      18.05
N       6.09      24.02      18.94
N       2.88      20.92      15.94
N      13.38      13.95      34.17
N      14.42      14.70      36.12
N      12.05      12.15       0.87
N      15.24      15.29      34.01
N       4.51       4.81       7.36
N       5.70       5.43       9.27
N       3.13       2.99      10.12
N       6.21       6.45       7.29
N      13.63      31.37      25.43
N      12.42      30.76      27.33
N      14.99      33.19      28.20
N      11.92      29.74      25.35
N      22.68      13.36      34.24
N      21.93      14.38       0.07
N      23.97      11.56       0.96
N      21.10      15.12      34.20
N      31.58      22.83      16.18
N      32.32      21.81      18.15
N      30.28      24.63      19.03
N      33.16      21.07      16.16
N      13.55       4.85       0.56
N      12.28       5.52      34.84
N      14.80       3.08      33.83
N      11.81       6.44       0.75
N       4.58      31.32      18.60
N       5.84      30.67      16.74
N       3.32      33.10      15.76
N       6.32      29.73      18.78
N      31.61      13.39       9.93
N      32.40      14.38       7.96
N      30.33      11.57       7.09
N      33.17      15.17       9.96
N      22.64      22.79      27.98
N      21.86      21.81      26.00
N      23.93      24.62      25.14
N      21.08      21.01      28.00
O       0.42      32.61       3.48
O       0.21       3.56      32.74
O       2.43      34.76      35.80
O      34.17      35.94      34.86
O      17.69       3.58      21.54
O      17.91      32.62      14.70
O      15.68       1.42      17.74
O      20.08       0.25      16.80
O      12.39      26.95      12.70
O       5.71      26.89       5.42
O      10.38      29.13       8.92
O       9.27      24.66       7.77
O       5.74       9.24      30.75
O      12.45       9.29      23.51
O       7.76       7.05      26.98
O       8.86      11.51      25.81
O      23.55       8.70      23.74
O      30.73       8.71      30.51
O      25.78       6.60      27.45
O      27.01      11.02      28.50
O      30.69      27.50       5.67
O      23.53      27.49      12.45
O      28.47      29.59       9.38
O      27.24      25.17      10.43
O      18.31      14.66      21.62
O      18.21      21.55      14.56
O      20.43      16.75      17.84
O      16.00      17.87      16.73
O      35.96      21.52       3.56
O      36.04      14.63      32.63
O      33.82      19.42      35.92
O       2.11      18.33      34.78
O       0.42      32.61      16.48
O       0.21       3.56       9.61
O       2.43      34.76      12.66
O      34.17      35.94      11.73
O      17.69       3.58      34.54
O      17.91      32.62      27.70
O      15.68       1.42      30.74
O      20.08       0.25      29.80
O      12.39      26.95      25.70
O       5.71      26.89      18.42
O      10.38      29.13      21.92
O       9.27      24.66      20.77
O       5.74       9.24       7.62
O      12.45       9.29       0.38
O       7.76       7.05       3.85
O       8.86      11.51       2.68
O      23.55       8.70       0.61
O      30.73       8.71       7.38
O      25.78       6.60       4.32
O      27.01      11.02       5.37
O      30.69      27.50      18.67
O      23.53      27.49      25.45
O      28.47      29.59      22.38
O      27.24      25.17      23.43
O      18.31      14.66      34.62
O      18.21      21.55      27.56
O      20.43      16.75      30.84
O      16.00      17.87      29.73
O      35.96      21.52      16.56
O      36.04      14.63       9.50
O      33.82      19.42      12.79
O       2.11      18.33      11.65
