41

H       4.88       3.80      28.75
H      10.22       3.39      34.39
H       6.42       2.29      35.67
H       8.39       1.78      33.91
H       7.73       6.67      33.20
H       1.64       2.95      31.44
H       6.53       3.21      30.53
H       4.93       0.10      32.26
H       5.67       0.44      37.17
H       3.26       2.31      33.21
H       0.36       4.28      28.40
H       5.86       5.08      32.72
H       4.15      -1.72      33.79
N       5.94       2.43      33.02
O       9.97       7.32      34.05
O       2.69       3.84      27.71
O      11.37       5.56      34.31
O       4.34      -1.64      37.72
O       3.64      -2.72      35.86
O       1.01       3.99      29.22
C       9.10       5.12      33.79
C       7.00       3.32      33.27
C       4.55       3.47      29.73
C       9.27       3.74      34.02
C       5.94       1.41      35.26
C       8.24       2.85      33.76
C       5.00       2.72      31.98
C       7.86       5.59      33.33
C       5.68       1.33      33.87
C       2.71       2.97      31.23
C       5.47       3.14      30.72
C       5.08       0.17      33.34
C       5.53       0.38      36.09
C      10.23       6.08      34.06
C       3.62       2.62      32.23
C       2.25       3.77      28.87
C       4.24      -1.78      36.46
C       6.82       4.71      33.07
C       3.17       3.39      29.98
C       4.66      -0.84      34.18
C       4.85      -0.74      35.57
