41

C      -0.86       8.75       6.93
C       1.74       9.67       7.45
C       2.85      11.86      10.99
C       0.25       7.91       6.71
N       3.05      10.14       7.70
C       1.54       8.35       6.97
C       3.26      11.10       8.74
C      -0.65      10.06       7.39
C       4.12       9.81       6.85
C       4.19      13.21       9.49
C       2.67      10.91      10.00
C       3.93       9.63       5.47
C       5.43       9.75       7.38
C      -2.26       8.25       6.66
C       4.04      12.25       8.49
C       3.74      14.01      11.86
C       5.03       9.47       4.63
C       0.63      10.51       7.66
C       3.60      13.02      10.75
C       6.51       9.61       6.54
C       6.33       9.50       5.15
C       7.54       9.50       4.25
O      -3.20       9.09       6.68
O       3.48      13.65      13.02
O      -2.38       7.00       6.41
O       7.36       9.49       2.99
O       8.65       9.56       4.86
O       4.16      15.19      11.50
H       2.39      11.74      11.97
H       0.08       6.90       6.33
H       2.92       9.65       5.06
H       2.39       7.69       6.81
H      -1.52      10.71       7.53
H       4.75      14.12       9.29
H       2.08      10.01      10.19
H       5.57       9.85       8.46
H       4.90       9.37       3.55
H       4.49      12.40       7.52
H       4.24      15.89      12.32
H       0.80      11.53       8.00
H       7.53       9.61       6.92
