41

N      -0.86       6.36      17.88
C      -0.11      10.44      17.11
C      -0.62       7.73      17.63
C       0.73       5.67      21.17
C      -1.39       9.90      16.89
C      -1.75       5.85      15.65
C      -1.65       8.56      17.15
C      -0.14       5.69      18.92
C       0.92       9.61      17.57
C      -1.68       5.59      17.03
C       1.22       3.83      19.67
C      -0.01       6.31      20.18
C      -2.39       4.49      17.56
C      -2.43       4.98      14.81
C       0.16      11.90      16.84
C       0.47       4.45      18.67
C       2.14       3.83      22.04
C      -3.66       2.78      14.44
C       0.67       8.26      17.84
C       1.35       4.44      20.93
C      -3.05       3.62      16.72
C      -3.06       3.84      15.33
O       1.36      12.30      16.86
O       1.97       4.24      23.20
O      -0.86      12.63      16.59
O      -3.58       2.94      13.18
O      -4.17       1.80      15.05
O       2.96       2.87      21.68
H       0.86       6.13      22.15
H      -2.17      10.55      16.51
H      -1.22       6.71      15.23
H      -2.65       8.16      16.99
H       1.91      10.03      17.71
H       1.74       2.90      19.47
H      -0.48       7.26      20.37
H      -2.38       4.32      18.64
H      -2.45       5.14      13.73
H       0.37       3.98      17.70
H       3.52       2.45      22.50
H       1.47       7.61      18.18
H      -3.56       2.74      17.10
