41

C       7.14       5.12      27.29
C       9.24       3.32      27.81
C      11.69       3.47      31.35
C       6.97       3.74      27.07
C      10.30       1.41      25.83
C       8.00       2.85      27.33
C      11.24       2.72      29.10
C       8.38       5.60      27.75
C      10.56       1.33      27.21
C      13.53       2.97      29.85
C      10.77       3.14      30.36
C      11.15       0.17      27.75
C      10.71       0.38      24.99
H       6.01       3.39      26.69
C      12.62       2.62      28.85
C      13.99       3.77      32.22
H       7.85       1.78      27.17
H       8.51       6.67      27.89
H      14.60       2.95      29.65
C       9.42       4.71      28.02
C       6.01       6.08      27.02
C      13.07       3.39      31.11
H      12.98       2.31      27.88
H       9.81       2.29      25.41
H      10.38       5.08      28.36
H      10.56       0.44      23.92
C      11.39      -0.73      25.51
H       9.71       3.21      30.55
H      15.88       4.28      32.68
H      12.08      -1.72      27.29
N      10.30       2.43      28.06
C      11.99      -1.78      24.62
H      11.31       0.10      28.82
O       6.27       7.32      27.04
O      13.55       3.83      33.38
O       4.87       5.57      26.77
H      11.36       3.80      32.33
O      11.90      -1.64      23.36
O      15.23       3.99      31.86
O      12.60      -2.72      25.23
C      11.58      -0.84      26.90
