41

N       0.86       6.36      12.66
H      -0.85       6.13       8.39
H       2.18      10.55      14.03
H       1.23       6.71      15.31
H       2.65       8.15      13.55
H      -1.91      10.03      12.84
H      -1.74       2.90      11.07
H       0.49       7.26      10.17
H       2.38       4.32      11.90
H       2.46       5.14      16.81
H      -0.37       3.98      12.84
H      -3.52       2.45       8.04
H      -1.47       7.61      12.36
H       3.57       2.74      13.44
O      -1.35      12.30      13.68
O      -1.96       4.23       7.34
O       0.87      12.63      13.95
O       3.59       2.94      17.37
O       4.17       1.79      15.50
O      -2.96       2.87       8.86
C       0.12      10.44      13.43
C       0.62       7.73      12.91
C      -0.73       5.67       9.37
C       1.39       9.90      13.66
C       1.75       5.85      14.90
C       1.66       8.56      13.39
C       0.14       5.69      11.62
C      -0.91       9.61      12.97
C       1.68       5.59      13.51
C      -1.22       3.83      10.87
C       0.01       6.31      10.36
C       2.39       4.49      12.98
C       2.43       4.98      15.73
C      -0.15      11.90      13.70
C      -0.46       4.45      11.87
C      -2.14       3.82       8.50
C       3.66       2.78      16.11
C      -0.67       8.26      12.71
C      -1.35       4.44       9.61
C       3.06       3.62      13.83
C       3.06       3.83      15.21
