20

La       3.65       7.46       0.53
La       5.24      11.49      -0.53
C       7.87      11.74      -2.90
O       6.47      11.09       1.49
O       3.88       9.85       1.24
O       2.11       5.58       0.24
O       4.69       5.85      -1.00
O       1.62       7.83       1.94
O       4.38       6.57       2.72
O       2.42       7.86      -1.49
O       5.00       9.10      -1.24
O       6.78      13.37      -0.24
O       4.20      13.10       1.00
O       7.27      11.12      -1.94
O       4.51      12.38      -2.72
C       3.14      10.67       1.91
C       1.26       5.16      -0.62
C       1.01       7.21       2.90
C       1.31       8.28      -1.91
C       7.63      13.79       0.62
