20

La       2.70      16.93      14.29
La       1.11      20.97      15.34
C       5.04      17.75      16.73
O       4.24      15.06      14.58
O       1.66      15.32      15.81
O       4.73      17.31      12.88
O       1.97      16.04      12.10
C       5.09      14.63      15.44
O      -0.12      20.56      13.33
O       2.47      19.33      13.58
O      -0.43      22.84      15.06
O       2.15      22.58      13.82
O      -0.92      20.59      16.75
O       1.84      21.86      17.54
C       5.33      16.69      11.91
O       3.93      17.34      16.30
O       1.35      18.57      16.05
C       3.21      20.14      12.90
C      -1.28      23.27      14.20
C      -1.52      21.21      17.72
