498

H      18.20      18.98      17.19
H      18.79      18.70      19.47
H      22.10      20.32      16.35
H      22.71      19.98      18.61
H      23.31      21.00      21.09
H      23.18      23.21      21.94
H      19.10      20.71      21.23
H      20.25      19.37      23.35
H      18.79      17.95      24.57
H      18.90      15.14      21.43
H      20.34      16.57      20.19
H      22.70      17.26      19.18
H      22.85      19.12      22.97
H      24.83      17.92      23.47
H      24.70      16.09      19.69
H      18.98      22.92      22.08
H      21.75      24.73      23.30
H      18.81      20.38      15.23
H      26.00      15.22      21.69
H      17.90      15.59      24.74
H      18.20      33.82      24.06
H      18.78      35.92      23.15
H      22.11      32.43      23.35
H      22.72      34.55      22.50
H      23.31      36.18      20.37
H      23.20      35.79      18.03
H      19.10      36.41      20.53
H      20.23      38.92      20.60
H      18.76      40.69      21.20
H      18.87      39.42      25.22
H      20.32      37.64      24.62
H      22.69      36.42      24.55
H      22.83      38.75      21.03
H      24.80      39.80      21.81
H      24.68      37.47      25.31
H      19.00      36.02      18.19
H      21.78      36.19      16.02
H      18.82      31.43      23.86
H      25.98      39.63      25.04
H      17.86      42.03      23.15
H      18.19      32.37       7.75
H      18.78      30.53       6.39
H      22.10      32.47       9.30
H      22.71      30.67       7.89
H      23.31      28.01       7.57
H      23.20      26.19       9.09
H      19.10      28.02       7.29
H      20.24      26.81       5.09
H      18.79      26.42       3.25
H      18.86      30.53       2.31
H      20.30      30.93       4.16
H      22.68      31.49       5.24
H      22.83      27.28       5.02
H      24.81      27.42       3.73
H      24.68      31.62       3.96
H      19.00      26.20       8.81
H      21.78      24.25       9.75
H      18.81      33.40       9.92
H      26.01      30.29       2.25
H      17.90      27.41       1.10
H       4.18      65.94      31.83
H       4.73      66.19      29.54
H       8.13      64.72      32.63
H       8.70      65.04      30.36
H       9.30      64.00      27.89
H       9.25      61.78      27.06
H       5.08      64.12      27.84
H       6.12      65.43      25.66
H       4.62      66.79      24.42
H       4.73      69.70      27.46
H       6.20      68.34      28.72
H       8.62      67.73      29.72
H       8.71      65.82      25.96
H      10.65      67.03      25.39
H      10.59      68.93      29.15
H       5.03      61.89      27.03
H       7.84      60.20      25.73
H       4.85      64.60      33.80
H      11.88      69.75      27.12
H       3.74      69.15      24.17
H       4.18      51.18      24.80
H       4.73      49.09      25.76
H       8.12      52.51      25.49
H       8.69      50.40      26.38
H       9.27      48.79      28.54
H       9.18      49.21      30.87
H       5.05      48.66      28.40
H       6.12      46.12      28.38
H       4.63      44.36      27.83
H       4.75      45.52      23.78
H       6.22      47.31      24.33
H       8.62      48.48      24.37
H       8.71      46.21      27.93
H      10.66      45.10      27.17
H      10.59      47.38      23.63
H       4.97      49.08      30.74
H       7.75      48.83      32.88
H       4.84      53.56      24.97
H      11.87      45.22      23.94
H       3.75      42.96      25.90
H       4.15      52.56      41.19
H       4.74      54.40      42.56
H       8.06      52.49      39.62
H       8.67      54.28      41.04
H       9.29      56.93      41.41
H       9.19      58.77      39.92
H       5.07      56.93      41.66
H       6.19      58.11      43.88
H       4.74      58.48      45.72
H       4.84      54.37      46.63
H       6.27      53.98      44.78
H       8.65      53.43      43.68
H       8.79      57.64      43.97
H      10.77      57.48      45.26
H      10.65      53.28      44.95
H       4.99      58.76      40.16
H       7.78      60.72      39.27
H       4.77      51.56      39.01
H      11.97      54.59      46.69
H       3.85      57.48      47.86
H      26.49      14.32      23.86
H       3.07      15.39      24.35
H       1.67      16.82      23.06
H      26.65      68.67      25.01
H      27.70      68.90      26.41
H       0.12      67.93      25.02
H      26.48      41.95      24.74
H       3.06      41.81      23.56
H       1.64      39.99      22.97
H      26.66      43.96      25.92
H      27.72      45.05      25.02
H       0.15      44.33      26.55
H      26.54      28.86       0.41
H       3.10      27.87       1.21
H       1.66      28.30       3.05
H      26.78      57.04      46.90
H      27.82      55.70      46.44
H       0.28      57.37      46.29
H      12.45      70.65      24.98
H      17.11      69.40      24.54
H      15.64      68.02      25.81
H      12.71      16.31      23.85
H      13.76      16.04      22.46
H      14.34      16.98      23.86
H      12.42      42.91      24.23
H      17.10      43.13      25.48
H      15.64      44.92      26.07
H      12.66      40.92      23.03
H      13.72      39.84      23.94
H      14.29      40.59      22.43
H      12.50      56.01      48.54
H      17.18      57.02      47.76
H      15.74      56.59      45.91
H      12.70      27.81       2.05
H      13.73      29.16       2.52
H      14.31      27.48       2.66
H      20.49      22.17      10.08
H      20.11      22.51      14.89
H      20.00      24.47      13.57
H      20.60      19.82      10.08
H      19.79      19.07      11.45
H      21.56      19.26      11.45
H      20.46      26.07      24.94
H      20.11      30.04      22.19
H      19.98      27.91      21.18
H      20.59      27.27      26.95
H      19.79      28.84      26.91
H      21.55      28.73      26.74
H      20.48      36.96      14.06
H      20.11      32.62      11.94
H      20.00      32.78      14.29
H      20.59      38.13      12.03
H      19.78      37.32      10.68
H      21.55      37.23      10.85
H       6.50      62.81      38.92
H       6.20      62.48      34.10
H       6.08      60.52      35.42
H       6.61      65.16      38.92
H       5.80      65.91      37.54
H       7.57      65.73      37.56
H       6.54      58.89      24.09
H       6.26      54.82      26.69
H       6.17      56.91      27.79
H       6.62      57.77      22.03
H       5.79      56.22      22.04
H       7.56      56.28      22.16
H       6.45      48.06      34.83
H       6.13      52.37      37.03
H       6.04      52.25      34.67
H       6.53      46.86      36.84
H       5.71      47.65      38.19
H       7.48      47.72      38.05
C      25.01      16.96      21.59
C      24.43      17.84      22.53
C      23.25      18.53      22.24
C      22.61      18.42      20.97
C      23.17      17.48      20.06
C      24.34      16.77      20.36
C      21.26      19.09      20.74
C      20.35      18.19      21.58
C      20.01      16.89      21.10
C      19.16      16.05      21.83
C      18.66      16.45      23.09
C      19.11      17.66      23.64
C      19.95      18.51      22.90
C      21.22      20.56      21.16
C      20.86      19.20      19.28
C      19.53      18.96      18.82
C      19.17      19.13      17.47
C      20.11      19.57      16.52
C      21.42      19.88      16.98
C      21.77      19.71      18.32
C      22.38      21.37      21.31
C      22.31      22.68      21.80
C      21.07      23.28      22.09
C      19.90      22.53      21.85
C      19.97      21.22      21.36
C      24.98      38.67      23.60
C      24.41      39.03      22.36
C      23.23      38.42      21.91
C      22.60      37.38      22.64
C      23.16      37.07      23.91
C      24.32      37.70      24.38
C      21.26      36.83      22.17
C      20.34      38.00      22.52
C      19.99      38.25      23.88
C      19.13      39.30      24.24
C      18.62      40.18      23.25
C      19.08      40.04      21.93
C      19.93      38.98      21.57
C      21.22      36.45      20.69
C      20.85      35.51      22.83
C      19.53      35.23      23.26
C      19.17      33.98      23.79
C      20.12      32.94      23.90
C      21.42      33.18      23.41
C      21.78      34.43      22.88
C      22.39      36.17      19.93
C      22.33      35.93      18.55
C      21.09      35.87      17.88
C      19.91      36.02      18.64
C      19.98      36.27      20.02
C      24.99      29.53       3.80
C      24.41      28.28       4.11
C      23.23      28.20       4.86
C      22.59      29.36       5.38
C      23.15      30.61       5.00
C      24.32      30.70       4.23
C      21.25      29.23       6.09
C      20.33      28.94       4.91
C      19.97      29.98       4.01
C      19.12      29.74       2.91
C      18.64      28.45       2.65
C      19.09      27.38       3.45
C      19.93      27.62       4.55
C      21.22      28.15       7.18
C      20.85      30.47       6.90
C      19.52      30.98       6.93
C      19.16      32.06       7.74
C      20.11      32.68       8.59
C      21.42      32.14       8.62
C      21.77      31.05       7.80
C      22.39      27.64       7.80
C      22.33      26.57       8.71
C      21.09      26.02       9.10
C      19.91      26.59       8.58
C      19.98      27.66       7.66
C      10.86      68.03      27.25
C      10.27      67.13      26.33
C       9.11      66.43      26.67
C       8.51      66.55      27.95
C       9.07      67.51      28.83
C      10.22      68.24      28.49
C       7.19      65.83      28.23
C       6.23      66.67      27.39
C       5.86      67.98      27.83
C       4.99      68.78      27.09
C       4.48      68.34      25.85
C       4.94      67.11      25.33
C       5.80      66.30      26.09
C       7.20      64.35      27.85
C       6.81      65.76      29.71
C       5.49      65.97      30.19
C       5.16      65.81      31.54
C       6.13      65.41      32.49
C       7.43      65.13      32.02
C       7.76      65.29      30.66
C       8.39      63.59      27.70
C       8.36      62.26      27.23
C       7.14      61.61      26.97
C       5.94      62.31      27.24
C       5.97      63.64      27.70
C      10.87      46.20      25.37
C      10.28      45.87      26.61
C       9.12      46.52      27.05
C       8.51      47.56      26.29
C       9.07      47.83      25.02
C      10.23      47.17      24.56
C       7.18      48.15      26.76
C       6.23      47.00      26.44
C       5.88      46.72      25.09
C       5.01      45.67      24.76
C       4.50      44.82      25.76
C       4.95      44.99      27.09
C       5.81      46.05      27.41
C       7.17      48.57      28.23
C       6.80      49.46      26.07
C       5.49      49.76      25.63
C       5.15      51.00      25.07
C       6.12      52.03      24.95
C       7.42      51.77      25.44
C       7.75      50.52      26.00
C       8.35      48.83      28.98
C       8.30      49.09      30.36
C       7.07      49.18      31.03
C       5.88      49.05      30.28
C       5.93      48.79      28.90
C      10.95      55.37      45.15
C      10.37      56.62      44.86
C       9.19      56.71      44.11
C       8.55      55.56      43.58
C       9.12      54.30      43.93
C      10.29      54.21      44.70
C       7.21      55.70      42.86
C       6.29      55.98      44.05
C       5.94      54.94      44.94
C       5.09      55.16      46.04
C       4.60      56.45      46.31
C       5.05      57.53      45.52
C       5.89      57.30      44.41
C       7.19      56.79      41.79
C       6.81      54.48      42.04
C       5.48      53.96      42.02
C       5.13      52.88      41.20
C       6.07      52.26      40.35
C       7.38      52.81      40.31
C       7.73      53.90      41.13
C       8.37      57.31      41.18
C       8.32      58.39      40.28
C       7.08      58.95      39.89
C       5.90      58.37      40.40
C       5.96      57.29      41.30
C      28.01      15.68      23.31
C      27.49      14.52      23.93
C       0.17      70.03      24.71
C       1.55      70.35      24.86
C       2.08      15.13      24.23
C       1.25      15.98      23.48
C      27.68      68.82      25.32
C      27.16      16.59      22.63
C       2.43      69.57      25.65
C      28.00      40.79      23.83
C      27.48      41.91      24.53
C       0.18      43.01      24.88
C       1.56      42.97      24.53
C       2.07      41.85      23.84
C       1.24      40.78      23.49
C      27.70      44.15      25.63
C      27.13      39.75      23.39
C       2.45      44.04      24.81
C      28.03      28.65       1.90
C      27.54      28.69       0.58
C       0.27      56.61      48.28
C       1.64      56.31      48.51
C       2.12      28.11       1.02
C       1.27      28.35       2.11
C      27.81      56.68      46.91
C      27.15      28.81       3.01
C       2.55      56.00      47.46
C      13.91      69.23      25.54
C      13.45      70.41      24.92
C      14.30      14.87      24.15
C      15.67      14.50      24.02
C      16.14      69.69      24.65
C      15.27      68.88      25.39
C      13.75      16.12      23.55
C      13.02      68.35      26.21
C      16.59      15.25      23.25
C      13.90      44.09      25.17
C      13.42      42.97      24.46
C      14.27      41.89      24.11
C      15.64      41.95      24.48
C      16.12      43.08      25.19
C      15.26      44.13      25.54
C      13.70      40.75      23.34
C      13.01      45.11      25.61
C      16.55      40.91      24.20
C      13.99      56.23      47.05
C      13.50      56.18      48.38
C      14.31      28.26       0.68
C      15.68      28.57       0.45
C      16.20      56.78      47.94
C      15.35      56.54      46.85
C      13.73      28.17       2.05
C      13.11      56.08      45.95
C      16.58      28.87       1.50
C      20.24      23.50      11.69
C      20.42      22.23      11.09
C      20.47      21.04      11.86
C      20.34      21.13      13.28
C      20.17      22.40      13.87
C      20.10      23.57      13.09
C      20.61      19.73      11.17
C      20.20      24.69      10.92
C      20.45      20.01      14.15
C      20.22      26.79      22.97
C      20.39      26.92      24.37
C      20.46      28.18      25.00
C      20.33      29.36      24.20
C      20.16      29.22      22.80
C      20.08      27.96      22.20
C      20.61      28.25      26.48
C      20.16      25.52      22.34
C      20.46      30.67      24.72
C      20.24      34.89      14.40
C      20.41      36.05      13.60
C      20.46      35.98      12.18
C      20.33      34.71      11.55
C      20.16      33.56      12.36
C      20.10      33.65      13.75
C      20.60      37.24      11.40
C      20.20      34.97      15.81
C      20.45      34.52      10.15
C       6.28      61.49      37.30
C       6.44      62.76      37.90
C       6.50      63.95      37.14
C       6.39      63.86      35.72
C       6.24      62.58      35.12
C       6.17      61.42      35.90
C       6.63      65.26      37.83
C       6.22      60.30      38.07
C       6.50      64.98      34.85
C       6.36      58.10      26.04
C       6.50      58.02      24.63
C       6.53      56.78      23.95
C       6.42      55.58      24.70
C       6.30      55.66      26.11
C       6.25      56.90      26.77
C       6.63      56.77      22.46
C       6.31      59.35      26.71
C       6.50      54.29      24.12
C       6.24      50.14      34.53
C       6.39      48.97      35.31
C       6.43      49.01      36.72
C       6.31      50.27      37.38
C       6.17      51.44      36.59
C       6.12      51.38      35.19
C       6.54      47.74      37.49
C       6.21      50.09      33.11
C       6.41      50.43      38.79
N      21.03      24.52      22.67
N      19.68      19.93      15.27
N      26.07      16.17      21.93
N      17.77      15.67      23.78
N      21.06      35.75      16.52
N      19.69      31.68      24.23
N      26.04      39.36      24.11
N      17.73      41.16      23.57
N      21.07      24.90       9.89
N      19.68      33.59       9.52
N      26.06      29.62       2.96
N      17.76      28.22       1.63
N       7.14      60.38      26.38
N       5.71      65.06      33.75
N      11.93      68.80      26.89
N       3.60      69.10      25.14
N       7.05      49.30      32.40
N       5.70      53.29      24.60
N      11.92      45.49      24.88
N       3.62      43.82      25.46
N       7.07      60.08      39.12
N       5.63      51.35      39.42
N      12.02      55.27      45.99
N       3.72      56.67      47.33
O      27.40      17.91      22.76
O       2.08      69.33      26.93
O      27.38      39.20      22.18
O       2.10      45.27      24.37
O      27.38      28.05       4.11
O       2.20      55.02      46.60
O      13.23      67.02      26.10
O      16.25      15.53      21.97
O      13.24      45.68      26.82
O      16.22      39.66      24.61
O      13.34      56.85      44.86
O      16.22      29.86       2.36
O      19.40      25.69      11.35
O      21.60      19.29      14.07
O      19.36      25.38      21.26
O      21.61      30.96      25.38
O      19.40      34.09      16.47
O      21.59      34.95       9.56
O       5.42      59.30      37.63
O       7.64      65.70      34.93
O       5.53      59.44      27.82
O       7.65      53.99      23.47
O       5.42      50.99      32.47
O       7.56      50.00      39.36
