21

H       1.11      17.49      12.55
H       3.42      18.44      18.48
H       4.10      15.97      18.14
C       2.12      17.73      14.23
C       2.84      17.73      17.88
N       1.03      17.19      13.52
H       0.10      17.50      13.86
H       1.43      16.90      16.02
H       1.79      18.01      17.95
C       3.26      17.90      16.40
N       2.19      17.41      15.55
C       3.08      16.32      18.44
O       4.82      19.55      15.61
O       1.06      15.58      17.36
O       3.01      18.41      13.67
C       2.09      15.27      18.03
O       2.86      20.31      16.38
H       4.19      17.31      16.22
O       2.35      14.04      18.38
C       3.69      19.35      16.09
H       3.14      16.31      19.54
