24

H       1.95      11.58      21.36
C       0.99      16.15      27.08
C       4.31      13.99      21.78
C       3.54      12.05      19.99
H      -0.12      13.44      24.62
H       5.92      14.28      20.34
H       1.58      12.74      23.46
C       2.26      14.69      23.88
C       1.39      14.96      25.01
C      -0.50      14.50      26.43
C       2.78      12.25      21.15
N      -0.09      15.41      27.35
N       4.64      12.77      19.72
H       3.28      11.29      19.26
H      -1.35      13.88      26.71
H       1.26      16.91      27.81
H       4.65      14.78      22.44
H       2.97      15.48      23.61
C       5.04      13.70      20.63
C       2.27      13.53      23.18
H       2.62      16.60      25.74
C       3.15      13.26      22.05
C       0.22      14.24      25.27
C       1.77      15.95      25.93
