24

C       4.46       4.77       8.55
C       2.42       5.23       9.92
H       4.80       3.95       9.19
C       5.19       5.02       7.39
H       6.04       4.41       7.11
C       0.38       4.53      12.03
H       3.45       7.46       6.01
C       2.40       4.06      10.62
N       4.79       5.94       6.47
N       0.05       3.32      14.09
H       1.41       1.84      14.55
H       1.72       6.02      10.19
H       0.03       5.31      11.35
H       2.08       7.14       8.08
H       3.10       3.27      10.35
C       3.71       6.69       6.74
C      -0.36       4.25      13.18
C       1.15       2.60      13.82
C       1.53       3.80      11.75
C       3.30       5.49       8.80
C       2.93       6.49       7.88
H       2.74       2.13      12.46
H      -1.23       4.83      13.46
C       1.91       2.80      12.67
