21

H       1.56       6.90      14.28
H       4.59       8.03      19.96
H       1.25       9.02      15.32
H       3.56       8.00      21.25
C       2.62       5.85      15.78
C       1.44       8.50      17.40
N       3.65       7.71      20.28
N       2.52       8.01      18.24
C       1.00       9.95      17.71
H       3.27       7.49      17.76
C       2.57       8.27      19.58
H       2.90       8.62      15.84
O       1.67       8.93      20.15
O      -0.13      10.13      18.19
C       1.62       6.91      15.37
C       1.85       8.32      15.92
O       2.33       4.63      15.44
O       1.82      10.91      17.40
O       3.65       6.15      16.45
H       0.60       6.56      15.68
H       0.52       7.90      17.60
