21

H       4.10       2.92       4.40
C       2.12       1.16       8.31
H       1.43       1.99       6.52
C       3.69      -0.46       6.45
H       1.79       0.88       4.58
H       3.42       0.45       4.06
H       4.19       1.58       6.32
N       2.19       1.48       6.99
C       3.08       2.57       4.10
N       1.03       1.71       9.02
C       2.09       3.62       4.51
O       3.01       0.48       8.87
H       1.11       1.40       9.99
O       2.35       4.85       4.16
C       3.26       0.99       6.13
O       4.82      -0.66       6.93
O       1.06       3.31       5.18
O       2.86      -1.42       6.16
H       0.10       1.39       8.68
C       2.84       1.16       4.66
H       3.14       2.58       3.00
