17

N       8.97      19.02      13.92
C       8.67      17.86      14.52
C       8.28      17.81      15.83
H       8.10      17.00      16.24
H       8.34      21.03      16.31
C       8.17      19.02      16.52
C       8.43      20.22      15.87
C       8.85      20.17      14.55
C       8.85      16.69      13.60
C       7.83      19.01      17.99
C       9.23      21.36      13.69
O       9.41      16.91      12.46
O       8.47      15.56      13.93
O       7.78      17.91      18.52
O       7.61      20.08      18.57
O       9.20      22.48      14.16
O       9.63      21.05      12.51
