17

C       8.04      11.81      15.14
C       7.85      10.60      15.81
C       7.87      10.63      17.21
C       8.17      14.11      18.24
O       7.92      13.80      19.43
O       8.37      15.23      17.82
O       8.65      12.76      13.08
O       7.38      10.98      13.05
O       7.69       8.29      17.63
N       7.96      11.75      17.90
O       7.83       9.63      19.37
C       8.01      11.87      13.63
C       7.78       9.41      18.10
H       8.37      13.81      15.46
H       7.72       9.80      15.35
C       8.14      12.92      17.26
C       8.21      13.00      15.88
