17

O      12.67      12.63       1.69
O      12.24      14.05       3.33
C      13.02      14.93       1.29
C      13.70      16.08      -0.68
C      13.44      14.88      -0.03
C      13.02      18.42       2.24
C      14.04      16.09      -2.15
C      12.64      13.74       2.15
N      12.90      16.08       1.92
H      13.77      18.11      -0.40
C      13.59      17.30       0.02
O      13.40      19.55       1.91
C      13.20      17.24       1.32
O      12.46      18.19       3.38
H      13.53      14.07      -0.47
O      14.09      17.19      -2.68
O      14.26      15.02      -2.72
