17

O       7.69      14.36       3.56
O       7.98      12.32       2.64
O      11.36      14.09      -2.52
O       9.65      12.68      -2.26
O      10.17      18.50       0.18
O       9.00      18.14       2.03
C       8.87      14.21       1.52
C       9.35      13.56       0.41
C       9.97      14.29      -0.61
C      10.13      15.65      -0.44
C       9.60      16.25       0.70
C       8.13      13.54       2.65
N       8.97      15.55       1.67
C      10.39      13.62      -1.90
C       9.61      17.75       0.96
H       9.27      12.63       0.34
H      10.57      16.15      -1.08
