17

H      14.18       4.46       8.32
H      18.22       4.55       8.39
O      14.14       5.78       4.54
O      12.75       4.89       6.01
N      16.23       5.26       6.00
O      15.08       4.11      10.60
O      17.24       3.86      10.64
O      19.69       5.36       6.23
O      18.28       5.85       4.59
C      15.06       5.00       6.60
C      14.99       4.62       7.91
C      16.20       4.46       8.60
C      17.41       4.68       7.95
C      17.38       5.09       6.63
C      13.89       5.23       5.68
C      16.18       4.12      10.07
C      18.58       5.43       5.77
