15

O       8.57       1.32      13.04
O       9.18       0.24      11.14
H      10.78       5.64      12.39
N      10.78       2.30      10.46
H      12.24       5.32      10.34
C       9.97       3.64      12.27
C      10.01       2.44      11.55
C      11.59       4.53      10.72
C      11.55       3.31      10.04
C       9.20       1.23      11.94
C      12.37       3.05       8.80
O      12.99       4.05       8.32
O      12.38       1.87       8.34
H       9.33       3.70      13.14
C      10.78       4.70      11.85
