15

O       8.57       2.72       6.04
O       9.18       1.62       7.92
H      10.78       0.00       2.62
N      10.78      -0.00       6.48
C       9.97       0.89       4.42
C      10.01       0.87       5.81
H      12.24      -1.62       3.93
C       9.20       1.81       6.67
O      12.99      -2.73       6.04
C      11.59      -0.89       4.42
C      11.55      -0.87       5.81
C      12.37      -1.81       6.66
H       9.32       1.62       3.93
O      12.38      -1.62       7.92
C      10.78      -0.00       3.71
