338

Mn       3.92       1.37      14.59
Mn      10.48      11.46      31.48
Mn      10.48      11.46      19.18
Mn       3.92       1.37       2.29
Mn       6.20       0.00      16.89
Mn       6.20       0.00       0.00
Co       9.96       2.62      25.33
Co       4.44      10.21       8.44
H       8.32       1.81      15.64
H       2.75       3.63      11.00
H       3.76       2.32      11.71
H       1.09       2.69      17.65
H      10.75       2.17      15.32
H      12.13       3.27      19.66
H       0.47       0.94      16.03
H       3.37      12.51      15.18
H      14.01      12.63      14.96
H       7.87       0.94      11.46
H      10.33       1.19      11.14
H       5.79      10.11      12.71
H       5.41       9.23      16.89
H       4.42       1.67      20.15
H       5.21       7.77      12.15
H      10.09       1.13      22.70
H      11.64       0.41      22.19
H      10.76       1.47      21.09
H       4.63       6.94      16.35
H       3.07       2.26      22.18
H       5.97       3.39      15.89
H       5.01       4.63      16.72
H       6.45       5.11      15.82
H       2.69       4.76      24.10
H       1.66       6.07      23.49
H       2.54       5.03      22.35
H      12.72       3.09      10.03
H      12.78       4.51      11.10
H      11.32       3.52      11.04
H       1.89       5.92      11.73
H       3.37       6.06      10.75
H       3.01       7.27      11.99
H       6.08      11.01      32.52
H      11.65       9.20      27.89
H      10.64      10.51      28.60
H      13.30      10.13       0.76
H       3.65      10.66      32.21
H       2.27       9.56       2.78
H      13.93      11.89      32.91
H      11.02       0.32      32.07
H       0.39       0.20      31.84
H       6.53      11.89      28.35
H       4.07      11.64      28.03
H       8.61       2.72      29.59
H       8.99       3.60       0.00
H       9.98      11.16       3.26
H       9.19       5.06      29.04
H       4.30      11.70       5.81
H       2.75      12.42       5.30
H       3.63      11.36       4.20
H       9.77       5.89      33.23
H      11.32      10.57       5.29
H       8.43       9.44      32.78
H       9.39       8.20      33.61
H       7.94       7.72      32.71
H      11.71       8.07       7.21
H      12.74       6.76       6.61
H      11.85       7.80       5.46
H       1.68       9.74      26.92
H       1.61       8.32      27.98
H       3.08       9.31      27.92
H      12.50       6.90      28.61
H      11.02       6.77      27.63
H      11.39       5.56      28.88
H       6.08      11.01      18.14
H      11.65       9.20      22.78
H      10.64      10.51      22.06
H      13.30      10.13      16.13
H       3.65      10.66      18.46
H       2.27       9.56      14.11
H      13.93      11.89      17.75
H      11.02       0.32      18.60
H       0.39       0.20      18.82
H       6.53      11.89      22.31
H       4.07      11.64      22.63
H       8.61       2.72      21.07
H       8.99       3.60      16.88
H       9.98      11.16      13.63
H       9.19       5.06      21.62
H       4.30      11.70      11.08
H       2.75      12.42      11.59
H       3.63      11.36      12.69
H       9.77       5.89      17.43
H      11.32      10.57      11.60
H       8.43       9.44      17.89
H       9.39       8.20      17.05
H       7.94       7.72      17.96
H      11.71       8.07       9.67
H      12.74       6.76      10.28
H      11.85       7.80      11.42
H       1.68       9.74      23.74
H       1.61       8.32      22.68
H       3.08       9.31      22.74
H      12.50       6.90      22.05
H      11.02       6.77      23.03
H      11.39       5.56      21.78
H       8.32       1.81       1.25
H       2.75       3.63       5.89
H       3.76       2.32       5.17
H       1.09       2.69      33.02
H      10.75       2.17       1.57
H      12.13       3.27      31.00
H       0.47       0.94       0.86
H       3.37      12.51       1.71
H      14.01      12.63       1.93
H       7.87       0.94       5.42
H      10.33       1.19       5.75
H       5.79      10.11       4.18
H       5.41       9.23      33.77
H       4.42       1.67      30.51
H       5.21       7.77       4.73
H      10.09       1.13      27.96
H      11.64       0.41      28.48
H      10.76       1.47      29.58
H       4.63       6.94       0.54
H       3.07       2.26      28.49
H       5.97       3.39       1.00
H       5.01       4.63       0.17
H       6.45       5.11       1.07
H       2.69       4.76      26.56
H       1.66       6.07      27.17
H       2.54       5.03      28.31
H      12.72       3.09       6.85
H      12.78       4.51       5.79
H      11.32       3.52       5.85
H       1.89       5.92       5.16
H       3.37       6.06       6.14
H       3.01       7.27       4.90
H      10.99       5.16      25.33
H      12.72       5.67      25.33
H       3.41       7.67       8.44
H       1.67       7.16       8.44
C       4.85       7.18      14.21
C       0.75       1.29      13.93
C      10.72       1.72      13.20
C       4.78       4.60      14.58
C       6.02      11.23      15.15
C      12.17       1.88      13.07
C       5.63       9.83      14.83
C       3.64       1.73      17.59
C       7.94       1.37      13.57
C       8.76       1.70      14.65
C       6.47       1.20      13.77
C       3.01       3.09      11.92
C       0.84       4.09      23.21
C       1.51       2.60      18.65
C      10.13       1.88      14.47
C       2.83       2.13      18.78
C       4.45       5.80      13.88
C       0.49       2.63      12.14
C       0.53       3.11      22.26
C       0.75       2.92      19.77
C       1.31       2.80      21.06
C       0.54       0.38      15.09
C      11.74       2.48      22.72
C       8.51       1.21      12.30
C       9.89       1.37      12.12
C       3.67       5.40      12.79
C       5.55       9.41      13.50
C       5.33       8.91      15.85
C       3.39       2.03      20.06
C       5.20       8.09      13.19
C      11.02       1.31      22.14
C       4.91       7.62      15.55
C       2.64       2.36      21.18
C       5.60       4.42      15.82
C       1.99       5.04      23.30
C      12.41       3.48      11.01
C       2.96       6.20      11.76
C       9.55       5.65      31.10
C      13.65      11.54      30.81
C       3.68      11.11      30.09
C       9.62       8.23      31.47
C       8.37       1.60      32.04
C       2.22      10.95      29.96
C       8.77       3.00      31.72
C      10.76      11.10       0.70
C       6.46      11.46      30.45
C       5.64      11.13      31.54
C       7.93      11.63      30.65
C      11.39       9.73      28.81
C      13.55       8.74       6.32
C      12.89      10.23       1.76
C       4.27      10.94      31.36
C      11.57      10.69       1.89
C       9.95       7.02      30.77
C      13.91      10.20      29.02
C      13.87       9.72       5.38
C      13.65       9.91       2.88
C      13.09      10.03       4.17
C      13.86      12.45      31.97
C       2.66      10.35       5.84
C       5.88      11.62      29.18
C       4.51      11.46      29.01
C      10.72       7.43      29.68
C       8.85       3.42      30.38
C       9.07       3.92      32.74
C      11.00      10.80       3.17
C       9.20       4.74      30.08
C       3.37      11.51       5.25
C       9.48       5.21      32.43
C      11.75      10.47       4.30
C       8.80       8.41      32.70
C      12.41       7.79       6.41
C       1.98       9.35      27.90
C      11.44       6.63      28.64
C       9.55       5.65      19.57
C      13.65      11.54      19.85
C       3.68      11.11      20.57
C       9.62       8.23      19.20
C       8.37       1.60      18.62
C       2.22      10.95      20.70
C       8.77       3.00      18.94
C      10.76      11.10      16.18
C       6.46      11.46      20.21
C       5.64      11.13      19.13
C       7.93      11.63      20.01
C      11.39       9.73      21.86
C      13.56       8.74      10.57
C      12.89      10.23      15.13
C       4.27      10.94      19.31
C      11.57      10.69      15.00
C       9.95       7.02      19.89
C      13.91      10.20      21.64
C      13.87       9.72      11.51
C      13.65       9.91      14.00
C      13.09      10.03      12.72
C      13.86      12.45      18.69
C       2.66      10.35      11.05
C       5.88      11.62      21.48
C       4.51      11.46      21.66
C      10.72       7.43      20.99
C       8.85       3.42      20.28
C       9.07       3.92      17.92
C      11.00      10.80      13.72
C       9.20       4.74      20.58
C       3.37      11.51      11.63
C       9.48       5.21      18.23
C      11.75      10.47      12.59
C       8.80       8.41      17.96
C      12.41       7.79      10.48
C       1.98       9.35      22.76
C      11.44       6.63      22.02
C       4.85       7.18       2.68
C       0.75       1.29       2.96
C      10.72       1.72       3.68
C       4.78       4.60       2.31
C       6.03      11.23       1.73
C      12.17       1.88       3.82
C       5.63       9.83       2.06
C       3.64       1.73      33.07
C       7.94       1.37       3.32
C       8.76       1.70       2.24
C       6.47       1.20       3.12
C       3.01       3.09       4.97
C       0.84       4.09      27.46
C       1.51       2.60      32.02
C      10.13       1.88       2.42
C       2.83       2.13      31.88
C       4.45       5.81       3.01
C       0.49       2.63       4.75
C       0.53       3.11      28.40
C       0.75       2.92      30.89
C       1.31       2.80      29.60
C       0.54       0.38       1.80
C      11.74       2.48      27.94
C       8.51       1.21       4.59
C       9.89       1.37       4.77
C       3.67       5.40       4.10
C       5.55       9.41       3.39
C       5.33       8.91       1.03
C       3.39       2.03      30.60
C       5.20       8.09       3.70
C      11.02       1.31      28.52
C       4.91       7.62       1.34
C       2.64       2.36      29.48
C       5.60       4.42       1.07
C       1.99       5.04      27.37
C      12.41       3.48       5.87
C       2.96       6.20       5.13
C      12.04       4.82      25.33
C       2.36       8.01       8.44
N       1.81       2.46      12.45
N       4.27       3.54      13.94
N       3.59       4.04      12.86
N       1.98       1.64      13.53
N      12.24       4.04      24.14
N      11.32       3.05      23.88
N      12.58      10.37      29.33
N      10.13       9.29      30.83
N      10.80       8.79      29.74
N      12.42      11.19      30.42
N       2.16       8.79       7.25
N       3.07       9.78       7.00
N      12.58      10.37      21.33
N      10.13       9.29      19.83
N      10.80       8.79      20.92
N      12.42      11.19      20.24
N       2.16       8.79       9.64
N       3.07       9.78       9.89
N       1.81       2.46       4.44
N       4.27       3.54       2.95
N       3.59       4.04       4.03
N       1.98       1.64       3.36
N      12.24       4.04      26.52
N      11.32       3.05      26.78
O       5.63      12.13      14.34
O       5.68       1.13      12.79
O       6.03       1.20      15.00
O       3.11       1.86      16.43
O       4.80       1.27      17.82
O       6.70      11.43      16.22
O       8.76       0.69      31.23
O       8.71      11.70      29.68
O       8.37      11.63      31.89
O      11.29      10.96      33.32
O       9.59      11.56       0.93
O       7.70       1.40      33.10
O       8.76       0.69      19.44
O       8.71      11.70      20.98
O       8.37      11.63      18.77
O      11.29      10.96      17.34
O       9.59      11.56      15.95
O       7.70       1.40      17.56
O       5.63      12.13       2.55
O       5.68       1.13       4.10
O       6.03       1.20       1.89
O       3.11       1.86       0.46
O       4.80       1.27      32.84
O       6.70      11.43       0.67
