56

La       1.97       6.14       6.97
La       1.92       6.15       0.65
La       0.86      -2.08       8.29
La       0.91      -2.09      14.61
H       4.98       1.29       8.63
H       2.28       2.79       8.61
H      -3.97       1.05      14.28
H       2.46       2.97      14.27
H      -2.15       2.77       6.63
H       0.55       1.27       6.66
H       6.80       3.01       0.99
H       0.37       1.09       0.99
C       3.06       0.19       8.56
C       3.90       1.42       8.64
C       4.21       3.86       8.57
C       3.36       2.65       8.64
C      -3.70       3.23      14.34
C      -4.51       1.99      14.26
C       2.18       0.78      14.33
C       2.99       2.02      14.26
C      -0.24       3.87       6.70
C      -1.07       2.64       6.62
C      -1.38       0.21       6.69
C      -0.53       1.41       6.63
C       6.53       0.83       0.93
C       7.33       2.07       1.01
C       0.65       3.28       0.93
C      -0.16       2.04       1.01
C       1.29       6.58       3.82
C       2.58       5.70       3.81
C       1.54      -2.52      11.45
C       0.24      -1.64      11.46
O       0.77       6.81       4.95
O       3.69      -0.93       8.38
O       1.80       0.25       8.64
O       3.12       5.46       4.93
O       3.63       4.99       8.33
O      -3.37       3.79       8.71
O       0.87       6.98       2.69
O      -2.43       3.09      14.53
O      -0.90      -3.83      14.25
O       3.00       5.31       2.67
O       0.91       0.92      14.52
O       2.72      -0.36      14.24
O       2.06      -2.75      10.31
O      -0.86       4.99       6.89
O       1.03       3.81       6.62
O      -0.29      -1.40      10.33
O      -0.80      -0.93       6.93
O       6.20       0.27       6.55
O       1.96      -2.92      12.57
O       5.26       0.97       0.74
O       3.73       7.89       1.02
O      -0.17      -1.25      12.59
O       1.92       3.14       0.74
O       0.11       4.42       1.03
