22

O       4.34       7.16       7.17
O       4.21       7.58       9.85
H       7.61       3.02       8.10
C       7.22       2.20      10.46
H       7.67       1.51       9.75
C       4.20       5.99       7.47
H       3.39       5.41       7.05
H       3.55       6.30      11.17
C       4.17       6.46      10.32
O       5.09       5.48      12.63
C       6.87       5.07       6.61
O       7.87       4.44       6.12
O       6.58       6.23       6.24
C       5.37       4.35      12.04
O       6.02       3.49      12.74
C       5.67       4.38      10.58
C       6.54       3.43       9.92
C       6.85       3.62       8.58
C       6.23       4.60       7.83
C       5.17       5.32       8.38
C       5.00       5.36       9.76
O       7.31       1.89      11.63
