22

O       9.97      16.69       7.26
O       9.83      17.02       9.91
H      12.79      12.16       7.95
H      13.27      10.92       9.71
C      12.77      11.58      10.41
C       9.82      15.50       7.49
H       9.03      14.95       6.98
C       9.78      15.88      10.35
H       9.15      15.71      11.19
O      10.68      14.87      12.63
C      12.44      14.44       6.60
O      13.46      13.82       6.12
O      12.17      15.62       6.24
C      10.96      13.74      12.03
O      11.61      12.88      12.74
C      12.03      12.77       9.87
C      12.22      12.90       8.50
C      11.74      13.97       7.80
C      11.24      13.77      10.56
C      10.75      14.77       8.37
C      10.59      14.78       9.77
O      12.87      11.28      11.58
