22

C       6.28      12.85       0.84
C       6.22      12.77      -0.53
C       6.68      13.88      -1.32
C       7.16      15.06      -0.67
C       7.17      15.11       0.74
H       5.91      12.01       1.43
H       4.98      11.54      -1.93
C       6.61      14.03       1.48
C       5.62      11.52      -1.06
H       8.60      16.71      -1.14
C       7.68      16.22      -1.44
H       8.26      16.12       2.41
C       7.75      16.28       1.47
C       6.99      13.65      -2.74
C       5.98      14.24       2.78
O       7.91      14.34      -3.32
O       5.12      13.40       3.18
O       6.60      12.55      -3.22
O       6.07      15.39       3.29
O       5.81      10.44      -0.51
O       7.06      16.67      -2.39
O       7.60      17.42       1.07
