22

O       3.87      13.01      12.27
O       7.31      17.01       7.30
O       4.98      11.09       8.72
H       7.07      16.21      10.94
H       7.37      17.56       9.17
C       7.04      16.80       8.46
H       4.27      11.52      11.02
C       4.40      12.56      11.26
C       4.57      12.20       8.42
H       3.80      12.27       7.68
O       5.13      13.41       6.21
C       6.88      13.84      12.23
O       7.91      14.46      12.71
O       6.60      12.67      12.59
C       5.43      14.54       6.80
O       6.08      15.41       6.09
C       6.39      15.56       8.99
C       6.57      15.44      10.37
C       6.16      14.31      11.04
C       5.25      13.44      10.43
C       5.17      13.41       9.03
C       5.72      14.49       8.27
