20

H       0.55      18.44       8.23
H       1.67      17.28      10.80
H       5.95      18.87      10.54
H       5.94      19.16       8.13
H       1.71      16.98       8.44
H       0.56      18.77      10.60
C       3.91      19.48      12.16
C       3.90      18.21       6.66
O       2.84      19.92      12.71
O       2.83      17.75       6.12
O       5.08      19.72      12.62
O       5.07      17.95       6.21
C       3.81      18.87       7.96
C       3.82      19.03      10.77
C       2.61      18.95       8.69
C       2.62      19.11      10.07
C       5.01      18.99      10.03
C       5.00      19.09       8.65
C       1.45      18.02       8.73
C       1.44      18.21      10.23
