22

C       5.03       5.44      18.39
C       5.28       5.62      19.73
C       6.15       4.73      20.42
C       6.54       3.52      19.78
C       6.32       3.37      18.39
H       4.39       6.14      17.88
C       5.61       4.39      17.68
H       4.27       6.71      21.40
C       4.62       6.79      20.38
H       8.04       1.89      20.13
H       7.46       2.23      16.83
C       7.20       2.44      20.55
C       6.83       2.15      17.71
C       6.84       5.19      21.65
C       5.33       4.36      16.23
O       5.07       5.50      15.65
O       7.84       4.56      22.15
O       6.55       6.35      22.05
O       6.00       3.51      15.54
O       4.49       7.84      19.77
O       6.79       2.11      21.65
O       6.59       1.04      18.15
