13

H       0.23       4.13       8.29
H      -0.44       6.21       9.56
H       0.28       4.05      13.22
S       1.00       1.44       9.44
N       0.54       2.99      11.46
C       0.57       3.01      10.11
C       0.23       4.16       9.38
C      -0.13       5.30      10.08
C      -0.10       5.30      11.48
C       0.25       4.11      12.14
C      -0.47       6.52      12.25
O      -0.95       7.50      11.61
O      -0.26       6.47      13.51
