13

C       2.80       1.24       1.81
C       3.99       1.18       2.54
C       5.19       1.09       1.84
C       5.18       1.12       0.43
C       3.94       1.19      -0.22
C       6.45       1.04      -0.33
S       1.17       1.30       2.48
H       3.97       1.17       3.63
H       6.14       1.00       2.35
N       2.79       1.22       0.45
H       3.88       1.20      -1.31
O       6.35       1.23      -1.60
O       7.52       0.80       0.31
