13

C       2.79       7.32       5.74
C       0.28       7.47       5.63
H       2.77       7.33       9.58
S       5.56       7.21       8.44
H       2.86       7.31       4.65
H       0.59       7.51       8.31
N       3.95       7.29       6.41
O      -0.78       7.71       6.27
O       0.38       7.28       4.36
C       3.94       7.27       7.77
C       2.74       7.33       8.50
C       1.55       7.42       7.79
C       1.56       7.39       6.39
