220

Cu       6.61      10.25      12.63
Cu       7.83      20.17       1.22
Cu       3.07      10.02      10.19
Cu       1.85       0.10      21.60
H       5.00       8.02       8.06
H       5.50       6.22       6.45
H       1.20       5.21       8.68
H       0.67       7.05      10.31
H       7.84       0.30       3.55
H       0.38       2.03       5.32
H       5.73       4.69       3.01
H       5.43       2.84       1.36
H       6.42      13.37      15.64
H       6.58      14.76      17.66
H       1.86      12.19      19.16
H       1.67      10.80      17.06
H       6.57      17.96      19.68
H       6.52      19.67      21.41
H       8.64      17.33       1.21
H       8.86      15.45      22.37
H       6.51       5.34       5.08
H       7.33      15.91      18.98
H       7.76       2.12      19.47
H       7.25       3.92      17.86
H       3.69       4.90      20.08
H       4.24       3.07      21.71
H       4.89       9.85      14.99
H       4.50       8.11      16.75
H       6.99       5.46      14.40
H       7.27       7.32      12.77
H       8.04      17.06       4.23
H       7.88      15.66       6.24
H       4.76      18.21       7.76
H       4.94      19.61       5.67
H       7.94      12.45       8.25
H       8.00      10.75       9.99
H       5.79      13.08      12.61
H       5.63      14.95      10.95
H       6.23       4.80      16.47
H       7.17      14.50       7.55
H       4.68      12.25      14.76
H       4.18      14.05      16.37
H       8.48      15.06      14.14
H       9.01      13.22      12.52
H       1.84      19.97      19.27
H       9.30      18.24      17.50
H       3.95      15.58      19.81
H       4.25      17.43      21.46
H       3.26       6.90       7.19
H       3.10       5.51       5.16
H       7.82       8.08       3.66
H       8.01       9.47       5.76
H       3.11       2.31       3.14
H       3.16       0.60       1.42
H       1.04       2.94      21.62
H       0.82       4.81       0.45
H       3.17      14.93      17.74
H       2.35       4.36       3.84
H       1.92      18.15       3.35
H       2.43      16.35       4.97
H       5.99      15.37       2.74
H       5.44      17.20       1.11
H       4.79      10.42       7.84
H       5.17      12.16       6.07
H       2.69      14.81       8.42
H       2.41      12.95      10.06
H       1.64       3.21      18.60
H       1.79       4.61      16.58
H       4.92       2.06      15.06
H       4.74       0.65      17.16
H       1.74       7.82      14.57
H       1.68       9.52      12.84
H       3.89       7.19      10.21
H       4.04       5.32      11.87
H       3.45      15.47       6.35
H       2.51       5.77      15.27
C       6.37       8.76      10.22
C       6.74       7.65       9.27
C       5.90       7.41       8.17
C       6.20       6.40       7.27
C       7.35       5.61       7.44
C       8.17       5.84       8.55
C       7.87       6.85       9.46
C       7.74       4.51       6.51
C       7.38       1.28       3.49
C       7.60       2.24       4.47
C       6.97       3.49       4.34
C       6.20       3.72       3.19
C       6.03       2.71       2.26
C       7.84      11.14      14.99
C       7.95      11.99      16.23
C       7.13      13.11      16.42
C       7.24      13.90      17.56
C       8.18      13.57      18.56
C       1.15      12.44      18.37
C       8.89      11.67      17.22
C       8.38      14.35      19.82
C       7.74      16.54      20.87
C       7.07      17.75      20.63
C       7.04      18.73      21.60
C       8.18      17.41       0.22
C       8.34      16.37      22.13
C       6.40       1.38      21.63
C       6.03       2.48      20.68
C       6.86       2.72      19.58
C       6.56       3.74      18.67
C       5.40       4.52      18.84
C       4.58       4.28      19.96
C       4.89       3.27      20.86
C       5.00       5.61      17.91
C       5.35       8.87      14.92
C       5.13       7.90      15.89
C       5.76       6.65      15.75
C       6.52       6.43      14.59
C       6.68       7.45      13.67
C       6.61      19.28       3.59
C       6.51      18.43       4.83
C       7.33      17.31       5.01
C       7.22      16.52       6.15
C       6.28      16.83       7.15
C       5.47      17.97       6.97
C       5.57      18.75       5.83
C       6.07      16.03       8.39
C       6.76      13.86       9.45
C       7.44      12.65       9.20
C       7.47      11.68      10.18
C       6.24      12.99      11.63
C       6.16      14.03      10.71
C       3.31      11.51      12.60
C       2.94      12.62      13.55
C       3.78      12.86      14.65
C       3.48      13.87      15.56
C       2.33      14.66      15.39
C       1.50      14.43      14.27
C       1.81      13.42      13.36
C       1.94      15.76      16.32
C       2.30      18.99      19.33
C       2.08      18.03      18.35
C       2.71      16.78      18.48
C       3.48      16.55      19.64
C       3.65      17.56      20.56
C       1.84       9.13       7.83
C       1.73       8.28       6.59
C       2.55       7.15       6.41
C       2.44       6.37       5.26
C       1.50       6.70       4.27
C       8.53       7.83       4.45
C       0.79       8.60       5.60
C       1.29       5.91       3.01
C       1.94       3.72       1.95
C       2.61       2.52       2.20
C       2.64       1.53       1.22
C       1.50       2.86      22.60
C       1.34       3.90       0.69
C       3.28      18.89       1.19
C       3.65      17.79       2.15
C       2.82      17.54       3.25
C       3.12      16.53       4.15
C       4.28      15.75       3.98
C       5.10      15.99       2.87
C       4.79      17.00       1.96
C       4.67      14.66       4.91
C       4.33      11.40       7.91
C       4.55      12.36       6.93
C       3.92      13.62       7.07
C       3.16      13.84       8.24
C       3.00      12.82       9.15
C       3.07       0.98      19.23
C       3.17       1.84      17.99
C       2.35       2.96      17.82
C       2.46       3.75      16.67
C       3.40       3.44      15.68
C       4.21       2.30      15.85
C       4.10       1.52      17.00
C       3.61       4.24      14.43
C       2.92       6.41      13.38
C       2.24       7.61      13.62
C       2.21       8.59      12.65
C       3.44       7.28      11.20
C       3.52       6.24      12.12
N       6.59       1.49       2.41
N       7.04       4.50       5.30
N       7.65      18.59      22.80
N       7.75      15.60      19.85
N       6.13       8.67      13.83
N       5.70       5.63      16.70
N       6.87      11.82      11.37
N       6.74      14.81       8.42
N       3.09      18.78      20.41
N       2.64      15.77      17.53
N       2.03       1.68       0.03
N       1.92       4.67       2.97
N       3.55      11.60       8.99
N       3.98      14.63       6.13
N       2.81       8.45      11.45
N       2.94       5.46      14.40
O       7.16       8.92      11.24
O       5.36       9.46       9.98
O       6.86      11.47      14.21
O       8.65      10.21      14.81
O       9.07      13.93      20.75
O       0.74       3.66       6.78
O       5.62       1.23      22.65
O       7.41       0.68      21.39
O       7.60      18.97       2.80
O       5.79      20.20       3.40
O       5.36      16.41       9.32
O       4.13       6.44      18.19
O       2.52      11.35      11.59
O       4.32      10.81      12.85
O       2.82       8.80       8.62
O       1.03      10.06       8.02
O       0.61       6.34       2.08
O       8.94      16.60      16.05
O       4.06      19.04       0.17
O       2.27      19.59       1.43
O       2.08       1.29      20.02
O       3.89       0.07      19.42
O       4.32       3.85      13.50
O       5.55      13.83       4.64
