144

C       9.74       8.88       7.72
C       1.02       9.17       7.45
C      10.56      10.68       6.42
C      10.31      11.87       5.74
C       8.70       8.10       8.25
C       2.33       8.81       7.78
C       9.74      20.40      21.80
C       1.02      20.11      22.07
C      10.56      18.60      23.10
C      10.32      17.40      23.78
C       8.70      21.17      21.27
C       2.34      20.48      21.75
C       4.22      21.68       9.01
C       6.55      21.95       9.30
C       5.04      22.98      10.81
C       4.79      23.66      12.01
C       3.18      21.16       8.23
C       7.86      21.63       8.94
C       4.21       7.61      20.53
C       6.54       7.33      20.24
C       5.03       6.30      18.73
C       4.78       5.63      17.54
C       3.17       8.13      21.31
C       7.86       7.66      20.61
C       0.78      20.80       7.76
C       9.52      20.37       7.57
C      11.05      19.25       6.16
C       0.33      18.32       5.16
C       1.82      21.41       8.48
C       8.20      20.68       7.95
C       0.78       8.48      21.78
C       9.51       8.91      21.97
C      11.04      10.03      23.39
C       0.32      10.95      24.39
C       1.81       7.88      21.06
C       8.19       8.61      21.60
C       6.31       7.63       8.60
C       3.98       7.44       9.04
C       5.52       6.03      10.16
C       5.85       5.03      11.09
C       7.34       8.35       7.99
C       2.67       7.82       8.73
C       6.31      21.65      20.92
C       3.99      21.84      20.49
C       5.52      23.26      19.37
C       5.85      24.27      18.46
C       7.34      20.93      21.52
C       2.67      21.47      20.80
C       0.17      13.59       4.25
C       0.82      13.70       3.00
C       0.97      14.97       2.38
C       0.69      16.12       3.14
C       0.03      16.03       4.39
C      10.74      14.75       4.88
C       0.18      15.70      25.28
C       0.82      15.58      26.53
C       0.97      14.32      27.15
C       0.69      13.16      26.40
C       0.03      13.25      25.15
C      10.75      14.53      24.65
C       5.71      25.16      13.71
C       6.35      26.41      13.83
C       6.50      27.03      15.09
C       6.21      26.28      16.25
C       5.56      25.03      16.16
C       5.22      24.53      14.88
C       5.70       4.13      15.83
C       6.35       2.88      15.71
C       6.49       2.26      14.45
C       6.21       3.02      13.29
C       5.55       4.26      13.38
C       5.21       4.76      14.66
H       3.09       9.33       7.33
H       8.96       7.30       8.84
H       9.40      12.33       5.86
H       3.09      19.95      22.19
H       8.96      21.97      20.69
H       9.41      16.95      23.66
H       8.62      22.07       9.46
H       3.43      20.57       7.44
H       3.88      23.54      12.46
H       8.61       7.21      20.08
H       3.43       8.72      22.11
H       3.87       5.74      17.08
H       7.45      20.19       7.45
H       1.56      22.01       9.27
H       1.26      18.39       4.74
H       7.44       9.09      22.09
H       1.55       7.28      20.27
H       1.25      10.89      24.82
H       1.91       7.32       9.22
H       7.08       9.13       7.39
H       6.78       4.61      11.02
H       1.92      21.97      20.31
H       7.09      20.14      22.12
H       6.78      24.69      18.52
H       0.80      17.04       2.70
H      10.31      14.68       5.81
H       1.06      12.85       2.48
H       0.80      12.25      26.84
H      10.32      14.60      23.72
H       1.05      16.44      27.05
H       6.33      26.72      17.17
H       4.80      23.60      14.81
H       6.59      26.93      12.98
H       6.33       2.58      12.37
H       4.79       5.69      14.73
H       6.58       2.36      16.56
N      11.01       8.50       7.97
N       0.78      10.24       6.65
N       9.53      10.00       6.98
N      11.02      20.78      21.55
N       0.78      19.03      22.87
N       9.53      19.28      22.54
N       5.49      21.43       8.63
N       6.31      22.75      10.38
N       4.01      22.42      10.13
N       5.49       7.85      20.91
N       6.30       6.53      19.17
N       4.00       6.86      19.41
N      10.56      21.02       8.15
N       9.78      19.45       6.60
N       1.01      19.94       6.74
N      10.55       8.27      21.39
N       9.77       9.83      22.95
N       1.00       9.35      22.81
N       5.03       8.02       8.39
N       4.25       6.47       9.95
N       6.53       6.61       9.47
N       5.03      21.26      21.13
N       4.25      22.82      19.58
N       6.53      22.68      20.06
N       0.11      12.35       4.81
N       1.11      15.13       1.05
N      10.80      17.10       5.17
N       0.11      16.93      24.71
N       1.11      14.17       0.17
N      10.80      12.18      24.37
N       5.64      24.59      12.49
N       6.64       0.05      15.25
N       5.28      24.25      17.23
N       5.63       4.69      17.06
N       6.64       0.93      14.29
N       5.27       5.05      12.31
