648

H       5.55      12.80       2.00
H       3.58      15.99       0.08
H      10.78      10.50       0.30
H       6.83      11.42      34.09
H       8.22      15.62      33.87
H       9.46      14.91       1.41
H       9.41       8.97      33.93
H      11.96      12.56       1.36
H       2.90      15.03       2.31
H       5.05      17.35      33.46
H      -7.81      14.35      13.63
H      -4.07      14.44      11.71
H      18.58      10.98      11.95
H      21.36      13.93      10.83
H      24.31      10.61      10.61
H      23.06       9.90      13.05
H      17.96      12.94      10.67
H      19.79       8.92      13.00
H      -4.55      15.53      13.93
H      -3.63      12.48      10.18
H       0.20      25.13      25.27
H      -1.59      21.85      23.34
H      15.12       3.96      23.59
H      16.28       0.08      22.47
H      -3.58      26.06      22.23
H      11.93       0.62      24.67
H      17.13       3.52      22.31
H      12.72       3.94      24.63
H      -0.42      21.72      25.56
H      -3.51      22.46      21.80
H      11.92       2.89      28.97
H      10.60       7.13      27.09
H      11.98       5.70      25.80
H       9.05       9.94      29.76
H       8.60       7.04      32.80
H       9.49       5.40      31.31
H      11.46      13.92       5.63
H      15.75      12.59       3.88
H      13.81      12.13       2.59
H      18.98      12.66       6.51
H      16.71      14.61       9.49
H      14.85      14.66       8.00
H      21.16       8.71      17.30
H      18.00       5.55      15.49
H      18.56       7.47      14.21
H      16.41       2.76      18.14
H      19.20       3.79      21.15
H      20.17       5.38      19.65
H       3.45      22.90      27.21
H       2.08      18.28      27.06
H       1.00      19.84      25.62
H       3.87      15.62      29.71
H       5.94      18.75      31.67
H       5.11      20.27      30.02
H       1.99      11.09       3.96
H      -1.34      14.58       3.79
H       0.56      14.73       2.35
H      -4.54      14.35       6.44
H      -2.86      11.00       8.40
H      -1.13      10.95       6.76
H      -7.51      18.29      15.56
H      -2.82      19.42      15.41
H      -3.64      17.70      13.98
H      -1.42      22.30      18.07
H      -5.17      22.53      20.01
H      -6.07      21.05      18.37
H       5.55      12.80      25.91
H       3.58      15.99      24.00
H      10.78      10.50      24.22
H       6.83      11.42      23.09
H       8.22      15.62      22.87
H       9.46      14.91      25.32
H       9.41       8.97      22.93
H      11.96      12.56      25.28
H       2.90      15.03      26.23
H       5.05      17.35      22.46
H      -7.81      14.35       2.63
H      -4.07      14.44       0.71
H      18.58      10.98       0.95
H      21.36      13.93      34.74
H      24.31      10.61      34.52
H      23.06       9.90       2.05
H      17.96      12.94      34.58
H      19.79       8.92       2.00
H      -4.55      15.53       2.93
H      -3.63      12.48      34.09
H       0.20      25.13      14.27
H      -1.59      21.85      12.34
H      15.12       3.96      12.59
H      16.28       0.08      11.47
H      -3.58      26.06      11.23
H      11.93       0.62      13.67
H      17.13       3.52      11.31
H      12.72       3.94      13.63
H      -0.42      21.72      14.56
H      -3.51      22.46      10.80
H      11.92       2.89      17.97
H      10.60       7.13      16.09
H      11.98       5.70      14.80
H       9.05       9.94      18.76
H       8.60       7.04      21.80
H       9.49       5.40      20.31
H      11.46      13.92      29.54
H      15.75      12.59      27.79
H      13.81      12.13      26.51
H      18.98      12.66      30.42
H      16.71      14.61      33.41
H      14.85      14.66      31.91
H      21.16       8.71       6.30
H      18.00       5.55       4.49
H      18.56       7.47       3.21
H      16.41       2.76       7.14
H      19.20       3.79      10.15
H      20.17       5.38       8.65
H       3.45      22.90      16.21
H       2.08      18.28      16.06
H       1.00      19.84      14.62
H       3.87      15.62      18.71
H       5.94      18.75      20.67
H       5.11      20.27      19.02
H       1.99      11.09      27.87
H      -1.34      14.58      27.70
H       0.56      14.73      26.27
H      -4.54      14.35      30.35
H      -2.86      11.00      32.31
H      -1.13      10.95      30.67
H      -7.51      18.29       4.56
H      -2.82      19.42       4.41
H      -3.64      17.70       2.98
H      -1.42      22.30       7.07
H      -5.17      22.53       9.01
H      -6.07      21.05       7.37
H       5.55      12.80      14.91
H       3.58      15.99      13.00
H      10.78      10.50      13.22
H       6.83      11.42      12.09
H       8.22      15.62      11.87
H       9.46      14.91      14.32
H       9.41       8.97      11.93
H      11.96      12.56      14.28
H       2.90      15.03      15.23
H       5.05      17.35      11.46
H      -7.81      14.35      26.54
H      -4.07      14.44      24.63
H      18.58      10.98      24.87
H      21.36      13.93      23.74
H      24.31      10.61      23.52
H      23.06       9.90      25.97
H      17.96      12.94      23.58
H      19.79       8.92      25.92
H      -4.55      15.53      26.84
H      -3.63      12.48      23.09
H       0.20      25.13       3.26
H      -1.59      21.85       1.34
H      15.12       3.96       1.59
H      16.28       0.08       0.47
H      -3.58      26.06       0.23
H      11.93       0.62       2.67
H      17.13       3.52       0.31
H      12.72       3.94       2.63
H      -0.42      21.72       3.56
H      -3.51      22.46      34.72
H      11.92       2.89       6.97
H      10.60       7.13       5.09
H      11.98       5.70       3.80
H       9.05       9.94       7.76
H       8.60       7.04      10.80
H       9.49       5.40       9.31
H      11.46      13.92      18.54
H      15.75      12.59      16.79
H      13.81      12.13      15.51
H      18.98      12.66      19.42
H      16.71      14.61      22.41
H      14.85      14.66      20.91
H      21.16       8.71      30.22
H      18.00       5.55      28.40
H      18.56       7.47      27.12
H      16.41       2.76      31.06
H      19.20       3.79      34.06
H      20.17       5.38      32.57
H       3.45      22.90       5.21
H       2.08      18.28       5.06
H       1.00      19.84       3.62
H       3.87      15.62       7.71
H       5.94      18.75       9.67
H       5.11      20.27       8.02
H       1.99      11.09      16.87
H      -1.34      14.58      16.70
H       0.56      14.73      15.27
H      -4.54      14.35      19.35
H      -2.86      11.00      21.31
H      -1.13      10.95      19.67
H      -7.51      18.29      28.48
H      -2.82      19.42      28.33
H      -3.64      17.70      26.89
H      -1.42      22.30      30.98
H      -5.17      22.53      32.93
H      -6.07      21.05      31.28
C       6.64      13.70       0.43
C       5.53      13.54       1.28
C       4.40      14.37       1.17
C       4.41      15.40       0.20
C       5.49      15.56      34.22
C       6.63      14.72      34.36
C       7.72      12.80       0.50
C       8.89      13.12       1.23
C      10.00      12.23       1.21
C       9.95      11.10       0.36
C       8.81      10.80      34.50
C       7.68      11.64      34.62
C      23.44      12.94      12.07
C      -7.17      13.99      12.92
C      -5.88      14.56      12.79
C      -5.00      14.02      11.83
C      -5.41      13.00      10.95
C      -6.70      12.44      11.09
C      22.11      12.47      12.15
C      21.80      11.30      12.88
C      20.48      10.78      12.85
C      19.52      11.39      12.02
C      19.83      12.53      11.24
C      21.13      13.09      11.36
C      -1.13      25.64      23.70
C      -0.43      24.75      24.55
C      -0.59      23.36      24.42
C      -1.49      22.86      23.46
C      -2.17      23.73      22.58
C      -2.01      25.13      22.72
C      14.63       0.16      23.78
C      13.78       1.01      24.51
C      13.99       2.41      24.48
C      15.00       2.94      23.65
C      15.84       2.10      22.88
C      15.67       0.70      22.99
C       8.75       8.68      31.45
C       8.86       7.33      31.85
C       9.37       6.35      30.97
C       9.78       6.73      29.67
C       9.09       8.98      30.11
C      10.47       5.85      28.79
C      10.86       6.22      27.48
C      11.67       5.36      26.72
C      12.10       4.11      27.23
C      11.66       3.78      28.53
C      12.98       3.24      26.52
C       8.39       9.71      32.36
C      18.04      13.62       8.17
C      16.82      14.22       8.55
C      15.73      14.26       7.67
C      15.84      13.67       6.39
C      18.13      13.13       6.85
C      14.73      13.51       5.51
C      14.85      12.90       4.24
C      13.69      12.64       3.48
C      12.41      12.99       3.95
C      12.35      13.63       5.22
C      11.21      12.69       3.24
C      19.11      13.42       9.09
C      17.69       3.11      19.82
C      18.81       3.87      20.21
C      19.39       4.81      19.32
C      18.84       4.99      18.03
C      17.23       3.26      18.49
C      19.25       6.03      17.15
C      18.69       6.21      15.87
C      19.03       7.34      15.10
C      19.94       8.31      15.60
C      20.49       8.06      16.88
C      20.27       9.50      14.89
C      16.98       2.28      20.74
C       4.99      17.02      30.88
C       5.34      18.39      30.92
C       4.86      19.29      29.95
C       4.01      18.82      28.92
C       4.18      16.59      29.80
C       3.39      19.69      27.97
C       2.38      19.25      27.09
C       1.73      20.18      26.25
C       2.09      21.55      26.27
C       3.15      21.93      27.14
C       1.43      22.52      25.47
C       5.38      16.11      31.90
C      -3.89      12.69       7.60
C      -2.88      11.70       7.65
C      -1.86      11.66       6.68
C      -1.83      12.64       5.65
C      -3.85      13.60       6.52
C      -0.77      12.74       4.71
C      -0.64      13.83       3.82
C       0.49      13.93       2.99
C       1.49      12.94       3.02
C       1.30      11.84       3.88
C       2.67      13.03       2.22
C      -4.87      12.81       8.62
C      -3.19      22.57      19.23
C      -4.55      22.19      19.27
C      -5.09      21.33      18.29
C      -4.26      20.82      17.27
C      -2.42      22.09      18.15
C      -4.70      19.85      16.33
C      -3.82      19.19      15.44
C      -4.30      18.17      14.61
C      -5.66      17.79      14.63
C      -6.52      18.52      15.49
C      -6.17      16.73      13.83
C      -2.60      23.36      20.25
C       6.64      13.70      24.35
C       5.53      13.54      25.20
C       4.40      14.37      25.08
C       4.41      15.40      24.12
C       5.49      15.56      23.22
C       6.63      14.72      23.36
C       7.72      12.80      24.42
C       8.89      13.12      25.15
C      10.00      12.23      25.12
C       9.95      11.10      24.28
C       8.81      10.80      23.50
C       7.68      11.64      23.62
C      23.44      12.94       1.07
C      -7.17      13.99       1.92
C      -5.88      14.56       1.79
C      -5.00      14.02       0.83
C      -5.41      13.00      34.86
C      -6.70      12.44       0.09
C      22.11      12.47       1.15
C      21.80      11.30       1.88
C      20.48      10.78       1.85
C      19.52      11.39       1.02
C      19.83      12.53       0.24
C      21.13      13.09       0.36
C      -1.13      25.64      12.70
C      -0.43      24.75      13.55
C      -0.59      23.36      13.42
C      -1.49      22.86      12.46
C      -2.17      23.73      11.58
C      -2.01      25.13      11.72
C      14.63       0.16      12.78
C      13.78       1.01      13.51
C      13.99       2.41      13.48
C      15.00       2.94      12.65
C      15.84       2.10      11.88
C      15.67       0.70      11.99
C       8.75       8.68      20.45
C       8.86       7.33      20.85
C       9.37       6.35      19.97
C       9.78       6.73      18.67
C       9.09       8.98      19.11
C      10.47       5.85      17.79
C      10.86       6.22      16.48
C      11.67       5.36      15.72
C      12.10       4.11      16.23
C      11.66       3.78      17.53
C      12.98       3.24      15.52
C       8.39       9.71      21.36
C      18.04      13.62      32.09
C      16.82      14.22      32.47
C      15.73      14.26      31.59
C      15.84      13.67      30.30
C      18.13      13.13      30.76
C      14.73      13.51      29.42
C      14.85      12.90      28.15
C      13.69      12.64      27.39
C      12.41      12.99      27.87
C      12.35      13.63      29.13
C      11.21      12.69      27.16
C      19.11      13.42      33.01
C      17.69       3.11       8.82
C      18.81       3.87       9.21
C      19.39       4.81       8.32
C      18.84       4.99       7.03
C      17.23       3.26       7.49
C      19.25       6.03       6.15
C      18.69       6.21       4.87
C      19.03       7.34       4.10
C      19.94       8.31       4.60
C      20.49       8.06       5.88
C      20.27       9.50       3.89
C      16.98       2.28       9.74
C       4.99      17.02      19.88
C       5.34      18.39      19.92
C       4.86      19.29      18.95
C       4.01      18.82      17.92
C       4.18      16.59      18.80
C       3.39      19.69      16.97
C       2.38      19.25      16.09
C       1.73      20.18      15.25
C       2.09      21.55      15.27
C       3.15      21.93      16.14
C       1.43      22.52      14.47
C       5.38      16.11      20.90
C      -3.89      12.69      31.52
C      -2.88      11.70      31.56
C      -1.86      11.66      30.59
C      -1.83      12.64      29.56
C      -3.85      13.60      30.44
C      -0.77      12.74      28.62
C      -0.64      13.83      27.73
C       0.49      13.93      26.90
C       1.49      12.94      26.93
C       1.30      11.84      27.80
C       2.67      13.03      26.14
C      -4.87      12.81      32.54
C      -3.19      22.57       8.23
C      -4.55      22.19       8.27
C      -5.09      21.33       7.29
C      -4.26      20.82       6.27
C      -2.42      22.09       7.15
C      -4.70      19.85       5.33
C      -3.82      19.19       4.44
C      -4.30      18.17       3.61
C      -5.66      17.79       3.63
C      -6.52      18.52       4.49
C      -6.17      16.73       2.83
C      -2.60      23.36       9.25
C       6.64      13.70      13.35
C       5.53      13.54      14.20
C       4.40      14.37      14.08
C       4.41      15.40      13.12
C       5.49      15.56      12.22
C       6.63      14.72      12.36
C       7.72      12.80      13.42
C       8.89      13.12      14.15
C      10.00      12.23      14.12
C       9.95      11.10      13.28
C       8.81      10.80      12.50
C       7.68      11.64      12.62
C      23.44      12.94      24.99
C      -7.17      13.99      25.83
C      -5.88      14.56      25.71
C      -5.00      14.02      24.74
C      -5.41      13.00      23.86
C      -6.70      12.44      24.01
C      22.11      12.47      25.06
C      21.80      11.30      25.79
C      20.48      10.78      25.77
C      19.52      11.39      24.93
C      19.83      12.53      24.16
C      21.13      13.09      24.27
C      -1.13      25.64       1.70
C      -0.43      24.75       2.55
C      -0.59      23.36       2.42
C      -1.49      22.86       1.46
C      -2.17      23.73       0.58
C      -2.01      25.13       0.72
C      14.63       0.16       1.78
C      13.78       1.01       2.51
C      13.99       2.41       2.48
C      15.00       2.94       1.65
C      15.84       2.10       0.88
C      15.67       0.70       0.99
C       8.75       8.68       9.45
C       8.86       7.33       9.85
C       9.37       6.35       8.97
C       9.78       6.73       7.67
C       9.09       8.98       8.11
C      10.47       5.85       6.79
C      10.86       6.22       5.48
C      11.67       5.36       4.72
C      12.10       4.11       5.23
C      11.66       3.78       6.53
C      12.98       3.24       4.52
C       8.39       9.71      10.36
C      18.04      13.62      21.09
C      16.82      14.22      21.47
C      15.73      14.26      20.59
C      15.84      13.67      19.30
C      18.13      13.13      19.76
C      14.73      13.51      18.42
C      14.85      12.90      17.15
C      13.69      12.64      16.39
C      12.41      12.99      16.87
C      12.35      13.63      18.13
C      11.21      12.69      16.16
C      19.11      13.42      22.01
C      17.69       3.11      32.73
C      18.81       3.87      33.12
C      19.39       4.81      32.24
C      18.84       4.99      30.95
C      17.23       3.26      31.40
C      19.25       6.03      30.07
C      18.69       6.21      28.78
C      19.03       7.34      28.02
C      19.94       8.31      28.51
C      20.49       8.06      29.79
C      20.27       9.50      27.80
C      16.98       2.28      33.65
C       4.99      17.02       8.88
C       5.34      18.39       8.92
C       4.86      19.29       7.95
C       4.01      18.82       6.92
C       4.18      16.59       7.80
C       3.39      19.69       5.97
C       2.38      19.25       5.09
C       1.73      20.18       4.25
C       2.09      21.55       4.27
C       3.15      21.93       5.14
C       1.43      22.52       3.47
C       5.38      16.11       9.90
C      -3.89      12.69      20.52
C      -2.88      11.70      20.56
C      -1.86      11.66      19.59
C      -1.83      12.64      18.56
C      -3.85      13.60      19.44
C      -0.77      12.74      17.62
C      -0.64      13.83      16.73
C       0.49      13.93      15.90
C       1.49      12.94      15.93
C       1.30      11.84      16.80
C       2.67      13.03      15.14
C      -4.87      12.81      21.54
C      -3.19      22.57      32.14
C      -4.55      22.19      32.18
C      -5.09      21.33      31.21
C      -4.26      20.82      30.18
C      -2.42      22.09      31.06
C      -4.70      19.85      29.24
C      -3.82      19.19      28.35
C      -4.30      18.17      27.52
C      -5.66      17.79      27.54
C      -6.52      18.52      28.41
C      -6.17      16.73      26.75
C      -2.60      23.36      33.16
N       8.84       9.71      33.66
N      11.15      12.51       1.89
N       3.29      14.21       1.96
N       5.40      16.47      33.21
N      18.89      13.06      10.39
N      20.14       9.65      13.54
N      -5.46      15.60      13.58
N      -4.57      12.61       9.94
N      16.77       2.66      22.03
N      13.18       3.27      25.17
N       0.10      22.47      25.21
N      -2.92      23.20      21.57
N       9.61       8.03      29.31
N      10.89       4.64      29.24
N      17.05      13.15       6.04
N      13.48      13.85       5.93
N      17.79       4.19      17.68
N      20.13       6.97      17.59
N       3.72      17.49      28.90
N       3.72      21.01      27.95
N      -2.84      13.55       5.63
N       0.21      11.79       4.69
N      -2.96      21.23      17.25
N      -6.01      19.48      16.30
N       8.84       9.71      22.66
N      11.15      12.51      25.81
N       3.29      14.21      25.87
N       5.40      16.47      22.21
N      18.89      13.06      34.31
N      20.14       9.65       2.54
N      -5.46      15.60       2.58
N      -4.57      12.61      33.86
N      16.77       2.66      11.03
N      13.18       3.27      14.17
N       0.10      22.47      14.21
N      -2.92      23.20      10.57
N       9.61       8.03      18.31
N      10.89       4.64      18.24
N      17.05      13.15      29.96
N      13.48      13.85      29.84
N      17.79       4.19       6.68
N      20.13       6.97       6.59
N       3.72      17.49      17.90
N       3.72      21.01      16.95
N      -2.84      13.55      29.54
N       0.21      11.79      28.60
N      -2.96      21.23       6.25
N      -6.01      19.48       5.30
N       8.84       9.71      11.66
N      11.15      12.51      14.81
N       3.29      14.21      14.87
N       5.40      16.47      11.21
N      18.89      13.06      23.31
N      20.14       9.65      26.45
N      -5.46      15.60      26.49
N      -4.57      12.61      22.86
N      16.77       2.66       0.03
N      13.18       3.27       3.17
N       0.10      22.47       3.21
N      -2.92      23.20      34.48
N       9.61       8.03       7.31
N      10.89       4.64       7.24
N      17.05      13.15      18.96
N      13.48      13.85      18.84
N      17.79       4.19      30.59
N      20.13       6.97      30.50
N       3.72      17.49       6.90
N       3.72      21.01       5.95
N      -2.84      13.55      18.54
N       0.21      11.79      17.60
N      -2.96      21.23      30.16
N      -6.01      19.48      29.21
O       7.69      14.87      33.52
O       8.94      14.28       1.95
O      23.91      11.44      10.26
O      22.78      10.67      13.59
O      -2.66      25.98      21.88
O      12.74       0.49      25.22
O       7.86      10.84      31.84
O      13.70       2.35      27.24
O      20.36      13.30       8.57
O      10.08      12.53       3.97
O      16.25       1.26      20.21
O      20.69      10.57      15.61
O       5.53      14.81      31.55
O       2.20      23.50      24.94
O      -6.07      13.33       8.28
O       3.14      11.87       1.69
O      -1.54      24.14      19.90
O      -7.40      16.90      13.30
O       7.69      14.87      22.52
O       8.94      14.28      25.86
O      23.91      11.44      34.17
O      22.78      10.67       2.59
O      -2.66      25.98      10.88
O      12.74       0.49      14.22
O       7.86      10.84      20.84
O      13.70       2.35      16.24
O      20.36      13.30      32.48
O      10.08      12.53      27.89
O      16.25       1.26       9.21
O      20.69      10.57       4.61
O       5.53      14.81      20.55
O       2.20      23.50      13.94
O      -6.07      13.33      32.19
O       3.14      11.87      25.60
O      -1.54      24.14       8.90
O      -7.40      16.90       2.30
O       7.69      14.87      11.52
O       8.94      14.28      14.86
O      23.91      11.44      23.17
O      22.78      10.67      26.51
O      -2.66      25.98      34.80
O      12.74       0.49       3.22
O       7.86      10.84       9.84
O      13.70       2.35       5.24
O      20.36      13.30      21.48
O      10.08      12.53      16.89
O      16.25       1.26      33.12
O      20.69      10.57      28.53
O       5.53      14.81       9.55
O       2.20      23.50       2.94
O      -6.07      13.33      21.19
O       3.14      11.87      14.60
O      -1.54      24.14      32.82
O      -7.40      16.90      26.21
