30

H       6.56      -0.70       8.49
H       8.76       2.97       8.14
H       3.35      -3.10       6.12
H       4.91       2.64       6.27
H       3.08       1.72       7.35
H       1.00       0.40       7.00
C       5.82      -2.00       6.45
C       6.63       0.30       8.08
C       4.40       0.05       6.98
C       7.88       2.38       7.92
C       7.77       1.06       8.37
C       5.59       0.85       7.31
C       4.48      -1.33       6.64
C       3.31      -2.05       6.41
C       5.70       2.18       6.87
C       6.83       2.94       7.16
C       6.91       4.34       6.66
C       2.05      -1.43       6.54
C       8.86       0.40       9.13
C       3.13       0.67       7.06
C       1.97      -0.06       6.87
C       0.79      -2.21       6.35
O       6.61      -1.58       5.57
O       6.15      -2.99       7.21
O      -0.32      -1.56       6.38
O       9.94       1.02       9.41
O       6.00       4.77       5.88
O       7.86       5.06       7.09
O       8.69      -0.83       9.48
O       0.84      -3.46       6.19
