30

H       2.92       6.41       1.26
H      -0.59       3.97       1.66
H       5.08       9.85       3.61
H      -0.49       7.84       3.53
H       0.26       9.71       2.39
H       1.40      11.90       2.74
C       4.19       7.29       3.28
C       1.93       6.27       1.69
C       2.03       8.53       2.77
C      -0.06       4.89       1.88
C       1.25       5.09       1.41
C       1.32       7.28       2.46
C       3.41       8.57       3.10
C       4.03       9.80       3.32
C       0.00       7.08       2.92
C      -0.68       5.90       2.65
C      -2.07       5.73       3.16
C       3.30      10.99       3.20
C       1.97       4.05       0.64
C       1.31       9.74       2.68
C       1.94      10.96       2.86
C       3.97      12.32       3.40
O       3.85       6.46       4.17
O       5.19       7.04       2.51
O       3.22      13.37       3.42
O       1.44       2.92       0.38
O      -2.56       6.63       3.92
O      -2.72       4.71       2.77
O       3.16       4.33       0.25
O       5.22      12.38       3.54
