30

O       1.12      -1.04      15.30
O      -0.22      -1.61      16.96
O       1.76      -7.95      16.05
O       3.54       2.50      19.09
O       7.53      -1.21      15.55
O       7.70       0.72      16.69
O       1.81       1.09      19.21
O      -0.25      -6.96      15.93
H       2.05      -0.99      18.20
H       5.56       1.45      17.80
H      -0.11      -4.42      15.85
H       5.46      -2.41      15.93
H       4.72      -4.29      17.08
H       3.58      -6.47      16.73
C       0.78      -1.87      16.19
C       3.04      -0.85      17.77
C       2.95      -3.11      16.70
C       5.03       0.53      17.58
C       3.73       0.33      18.06
C       3.65      -1.86      17.00
C       1.56      -3.14      16.37
C       0.94      -4.38      16.14
C       4.97      -1.66      16.54
C       5.65      -0.48      16.82
C       7.05      -0.31      16.30
C       1.67      -5.57      16.26
C       3.00       1.37      18.83
C       3.67      -4.32      16.79
C       3.04      -5.54      16.60
C       1.00      -6.89      16.06
