450

C       9.69      55.26      34.72
C       0.37      60.05      34.99
C       0.19      57.85      30.64
C       0.28      61.35      34.43
C       0.44      62.50      35.22
C       0.69      62.39      36.60
C       0.79      61.11      37.18
C       0.62      59.96      36.39
C       9.65      55.16      36.14
C       9.44      53.93      36.78
C       9.29      52.75      36.03
C       9.32      52.83      34.62
C       9.52      54.07      33.98
C       0.01      56.67      29.87
C       0.12      56.70      28.47
C       0.40      57.90      27.78
C       0.58      59.08      28.54
C       0.47      59.05      29.95
C       0.12      57.80      32.07
C       9.88      56.52      34.07
C       0.21      58.88      34.20
C       0.55      57.91      26.40
C       0.90      63.51      37.39
C       9.07      51.54      36.67
C       9.69      48.29      14.22
C       0.37      46.13       9.93
C       0.19      43.46      14.01
C       0.28      44.99       9.09
C       0.44      45.10       7.70
C       0.70      46.35       7.10
C       0.80      47.49       7.93
C       0.62      47.38       9.32
C       9.64      49.56      13.59
C       9.44      50.74      14.34
C       9.29      50.68      15.74
C       9.33      49.42      16.37
C       9.53      48.24      15.62
C       0.02      43.38      15.42
C       0.12      42.15      16.10
C       0.40      40.95      15.40
C       0.58      41.03      14.00
C       0.47      42.26      13.32
C       0.12      44.72      13.34
C       9.88      47.10      13.45
C       0.22      46.02      11.35
C       0.55      39.75      16.07
C       0.90      46.48       5.74
C       9.08      51.83      16.46
C       9.69      34.04      30.50
C       0.37      31.39      34.50
C       0.19      36.26      34.79
C       0.28      31.23      35.91
C       0.44      29.97      36.51
C       0.69      28.82      35.72
C       0.79      28.97      34.32
C       0.63      30.24      33.72
C       9.67      32.87      29.70
C       9.46      32.93      28.31
C       9.27      34.18      27.68
C       9.29      35.35      28.46
C       9.49      35.28      29.85
C       0.01      37.52      34.16
C       0.12      38.72      34.88
C       0.40      38.71      36.27
C       0.58      37.46      36.90
C       0.47      36.26      36.18
C       0.12      35.05      34.03
C       9.89      33.97      31.91
C       0.22      32.67      33.89
C       0.55      39.90      36.98
C       0.89      27.58      36.29
C       9.04      34.23      26.32
C       9.78      -9.25      44.85
C      10.00     -14.08      44.37
C       0.33     -12.00      48.79
C       0.02     -15.39      44.91
C       9.91     -16.53      44.09
C       9.79     -16.40      42.68
C       9.78     -15.09      42.14
C       9.89     -13.96      42.96
C       9.82      -9.05      43.44
C       9.61      -7.78      42.88
C       9.35      -6.67      43.71
C       9.31      -6.85      45.11
C       9.53      -8.12      45.67
C       0.31     -10.83      49.58
C       0.42     -10.89      50.98
C       0.55     -12.13      51.65
C       0.59     -13.30      50.86
C       0.47     -13.24      49.46
C       0.21     -11.92      47.37
C       9.95     -10.55      45.42
C       0.06     -12.92      45.21
C       0.68     -12.18      53.03
C       9.65     -17.49      41.83
C       9.07      -5.43      43.19
C       9.78      -2.43      65.04
C      10.00      -0.40      69.45
C       0.34       2.36      65.42
C       0.01       0.72      70.31
C       9.91       0.58      71.70
C       9.79      -0.70      72.30
C       9.79      -1.83      71.44
C       9.89      -1.68      70.05
C       9.79      -3.74      65.59
C       9.58      -4.87      64.77
C       9.35      -4.72      63.39
C       9.34      -3.42      62.83
C       9.57      -2.30      63.65
C       0.32       2.46      64.01
C       0.43       3.70      63.36
C       0.56       4.90      64.10
C       0.59       4.81      65.51
C       0.48       3.57      66.16
C       0.21       1.09      66.07
C       9.95      -1.28      65.86
C       0.06      -0.26      68.03
C       0.68       6.12      63.45
C       9.65      -0.89      73.67
C       9.06      -5.80      62.60
C       9.79      11.67      49.00
C      10.00      14.47      45.04
C       0.33       9.60      44.66
C       0.01      14.65      43.64
C       9.91      15.93      43.06
C       9.79      17.09      43.88
C       9.79      16.91      45.28
C       9.89      15.63      45.85
C       9.78      12.80      49.85
C       9.57      12.67      51.24
C       9.35      11.40      51.81
C       9.37      10.26      50.98
C       9.59      10.40      49.59
C       0.31       8.33      45.28
C       0.42       7.14      44.53
C       0.55       7.18      43.12
C       0.59       8.45      42.49
C       0.47       9.64      43.25
C       0.21      10.79      45.44
C       9.95      11.80      47.59
C       0.06      13.17      45.63
C       0.68       6.01      42.39
C       9.65      18.37      43.35
C       9.06      11.26      53.15
C       0.11      65.65      38.03
C       1.30      66.31      38.42
C       1.24      67.53      39.13
C       0.00      68.12      39.46
C       8.82      67.46      39.05
C       8.87      66.25      38.34
C       9.95     -22.36      40.16
C       0.79     -22.12      41.28
C       0.76     -20.88      41.95
C       9.92     -19.84      41.52
C       9.06     -20.09      40.42
C       9.08     -21.32      39.75
C       0.11      45.96       3.57
C       1.29      45.97       2.80
C       1.24      45.98       1.39
C      10.00      45.97       0.71
C       8.81      45.95       1.49
C       8.87      45.94       2.89
C       9.95       0.10      78.72
C       0.79       0.94      77.95
C       0.76       0.91      76.54
C       9.91       0.01      75.86
C       9.05      -0.81      76.62
C       9.07      -0.77      78.03
C       0.11      25.96      37.83
C       1.29      25.29      38.21
C       1.24      24.07      38.90
C       0.00      23.48      39.25
C       8.81      24.16      38.88
C       8.87      25.39      38.19
C       9.95      22.25      39.97
C       0.79      21.16      39.62
C       0.76      19.96      40.36
C       9.91      19.82      41.47
C       9.06      20.89      41.81
C       9.08      22.09      41.07
C       9.84      53.11      18.34
C       8.73      53.94      18.61
C       8.75      54.84      19.69
C       9.88      54.94      20.53
C       1.01      54.14      20.23
C       0.98      53.23      19.16
C       9.83      55.67      21.76
C       8.75      55.46      22.65
C       8.77      56.01      23.94
C       9.86      56.79      24.38
C       0.92      57.04      23.48
C       0.91      56.48      22.19
C       9.84      35.17      24.26
C       8.73      34.98      23.40
C       8.76      35.46      22.08
C       9.89      36.14      21.58
C       1.02      36.27      22.42
C       0.99      35.80      23.74
C       9.84      36.84      20.34
C       8.76      37.72      20.07
C       8.78      38.57      18.95
C       9.86      38.56      18.06
C       0.93      37.66      18.29
C       0.92      36.81      19.42
C       9.84      49.28      36.83
C       8.73      48.63      37.43
C       8.75      47.25      37.67
C       9.88      46.47      37.33
C       1.01      47.13      36.79
C       0.98      48.51      36.53
C       9.83      45.04      37.35
C       8.75      44.37      36.74
C       8.77      42.98      36.56
C       9.86      42.21      37.02
C       0.93      42.87      37.67
C       0.91      44.26      37.84
C      10.00      -7.44      61.15
C       8.86      -8.23      60.84
C       8.87      -9.11      59.74
C       0.02      -9.23      58.92
C       1.18      -8.50      59.28
C       1.17      -7.62      60.38
C       9.97      -9.94      57.68
C       8.92      -9.68      56.77
C       8.94     -10.22      55.47
C       0.00     -11.04      55.05
C       1.04     -11.34      55.97
C       1.02     -10.79      57.27
C       9.99      10.78      55.29
C       8.86      10.91      56.12
C       8.87      10.39      57.43
C       0.02       9.75      57.95
C       1.18       9.69      57.13
C       1.16      10.20      55.82
C       9.97       9.03      59.18
C       8.92       8.11      59.41
C       8.94       7.25      60.53
C       0.01       7.30      61.45
C       1.04       8.24      61.25
C       1.02       9.09      60.13
C       0.01      -3.39      42.41
C       8.87      -2.73      41.90
C       8.88      -1.34      41.69
C       0.03      -0.56      41.98
C       1.19      -1.24      42.42
C       1.18      -2.63      42.63
C       9.97       0.86      41.99
C       8.93       1.52      42.68
C       8.95       2.91      42.87
C       0.01       3.69      42.36
C       1.04       3.05      41.64
C       1.02       1.65      41.46
H       0.99      60.99      38.18
H       0.71      59.05      36.84
H       9.53      54.08      32.95
H       9.76      56.00      36.72
H       9.42      53.90      37.80
H       9.20      51.99      34.04
H       9.82      55.77      30.32
H       0.80      59.96      28.08
H       0.62      59.93      30.46
H       0.01      55.82      27.96
H       0.10      61.47      33.43
H       0.38      63.42      34.77
H       8.34      51.48      37.34
H       1.64      63.50      38.06
H       1.21      58.54      25.98
H       0.99      48.42       7.53
H       0.71      48.23       9.88
H       9.55      47.35      16.13
H       9.75      49.65      12.58
H       9.41      51.63      13.85
H       9.21      49.34      17.39
H       9.82      44.22      15.97
H       0.79      40.18      13.46
H       0.61      42.26      12.31
H       0.01      42.15      17.12
H       0.10      44.07       9.49
H       0.37      44.25       7.13
H       8.35      52.45      16.18
H       1.64      47.06       5.42
H       1.20      39.08      15.74
H       0.99      28.17      33.72
H       0.71      30.30      32.71
H       9.49      36.16      30.38
H       9.81      31.94      30.12
H       9.45      32.06      27.77
H       9.14      36.27      28.02
H       9.82      37.58      33.16
H       0.80      37.42      37.90
H       0.62      35.38      36.68
H       0.00      39.60      34.38
H       0.10      32.03      36.52
H       0.37      29.89      37.53
H       8.27      33.73      25.94
H       1.63      27.01      35.94
H       1.20      39.94      37.73
H       9.70     -14.95      41.13
H       9.87     -13.04      42.51
H       9.48      -8.21      46.68
H       9.99      -9.84      42.81
H       9.63      -7.67      41.86
H       9.11      -6.06      45.73
H       0.22      -9.90      49.16
H       0.69     -14.22      51.31
H       0.50     -14.12      48.93
H       0.42     -10.01      51.51
H       0.09     -15.54      45.92
H       9.91     -17.45      44.53
H       8.14      -5.08      43.27
H       9.34     -17.33      40.90
H       1.28     -12.85      53.44
H       9.70      -2.78      71.83
H       9.87      -2.53      69.48
H       9.54      -1.38      63.20
H       9.95      -3.88      66.59
H       9.57      -5.80      65.21
H       9.16      -3.29      61.83
H       0.23       1.63      63.42
H       0.69       5.66      66.08
H       0.50       3.55      67.18
H       0.43       3.71      62.34
H       0.08       1.67      69.93
H       9.90       1.42      72.28
H       8.11      -5.94      62.32
H       9.33      -1.77      74.00
H       1.29       6.82      63.82
H       9.70      17.71      45.91
H       9.87      15.56      46.87
H       9.57       9.55      49.02
H       9.92      13.74      49.48
H       9.54      13.51      51.82
H       9.20       9.33      51.36
H       0.22       8.24      46.30
H       0.69       8.52      41.48
H       0.49      10.53      42.75
H       0.42       6.25      45.03
H       0.08      13.85      43.01
H       9.90      16.01      42.04
H       8.11      11.14      53.40
H       9.33      19.09      43.95
H       1.27       5.99      41.59
H       7.90      67.85      39.28
H       7.99      65.80      38.06
H       1.42     -22.85      41.63
H       1.39     -20.74      42.75
H       8.42     -19.36      40.09
H       2.21      65.92      38.17
H       8.47     -21.45      38.94
H       2.12      67.99      39.37
H       7.90      45.96       1.03
H       7.99      45.93       3.42
H       1.42       1.61      78.41
H       1.39       1.53      76.02
H       8.41      -1.46      76.16
H       2.21      45.94       3.26
H       8.46      -1.41      78.54
H       2.12      45.95       0.87
H       7.90      23.77      39.10
H       7.99      25.85      37.93
H       1.42      21.23      38.82
H       1.39      19.20      40.08
H       8.41      20.81      42.60
H       2.21      25.70      37.99
H       8.46      22.85      41.37
H       2.12      23.63      39.18
H       1.83      54.14      20.84
H       1.79      52.61      19.01
H       7.98      54.84      22.40
H       8.01      55.78      24.59
H       1.75      57.56      23.78
H       7.86      53.85      18.07
H       1.72      56.63      21.58
H       7.91      55.39      19.89
H       1.84      36.80      22.12
H       1.80      35.98      24.35
H       7.99      37.82      20.74
H       8.02      39.25      18.84
H       1.76      37.66      17.69
H       7.87      34.56      23.75
H       1.73      36.21      19.59
H       7.92      35.36      21.51
H       1.83      46.60      36.48
H       1.79      48.95      36.07
H       7.98      44.90      36.32
H       8.01      42.53      36.04
H       1.75      42.34      37.97
H       7.87      49.15      37.62
H       1.72      44.72      38.27
H       7.91      46.80      38.05
H       2.02      -8.53      58.69
H       2.00      -7.05      60.56
H       8.17      -9.03      57.01
H       8.20      -9.94      54.81
H       1.85     -11.89      55.67
H       8.00      -8.13      61.38
H       1.81     -10.98      57.89
H       8.02      -9.62      59.51
H       2.01       9.19      57.45
H       1.99      10.07      55.24
H       8.17       7.99      58.73
H       8.21       6.54      60.62
H       1.85       8.27      61.87
H       8.00      11.32      55.77
H       1.81       9.73      59.98
H       8.02      10.45      57.99
H       2.03      -0.72      42.68
H       2.02      -3.08      43.02
H       8.18       0.98      43.13
H       8.22       3.34      43.45
H       1.84       3.58      41.30
H       8.00      -3.24      41.72
H       1.80       1.21      40.97
H       8.01      -0.88      41.37
N       9.94      56.62      32.72
N       0.03      57.67      34.78
N       0.26      58.92      32.84
N       9.94      45.87      14.04
N       0.03      47.14      12.11
N       0.26      44.83      11.99
N       9.94      35.08      32.68
N       0.04      32.78      32.55
N       0.26      33.83      34.61
N       0.08     -10.71      46.76
N       9.94     -11.68      44.67
N       0.19     -13.01      46.56
N       0.09      -0.04      65.33
N       9.94      -1.35      67.22
N       0.19       0.95      67.42
N       0.09      10.72      46.79
N       9.94      13.02      46.98
N       0.19      12.04      44.88
N       9.96     -18.69      42.18
N       0.10      64.52      37.34
N       9.96       0.01      74.53
N       0.09      45.94       4.89
N       9.96      18.66      42.14
N       0.09      27.12      37.19
N       9.89      57.09      25.67
N       9.82      52.11      17.47
N       9.90      39.53      17.16
N       9.83      34.91      25.56
N       9.89      40.95      36.63
N       9.82      50.53      36.41
N       0.05     -11.33      53.76
N       0.01      -6.46      62.05
N       0.06       6.33      62.35
N       0.01      11.07      53.99
N       0.06       4.95      42.76
N       0.03      -4.66      42.81
