11

C       4.88      -0.08       4.55
Zn       4.19      -2.49       2.81
C       2.75      -0.09       4.44
C       5.61      -4.77       4.58
C       3.49      -4.78       4.69
C       6.04      -1.29       1.63
C       2.37      -3.78       1.70
N       3.84      -0.79       4.07
N       4.53      -4.05       4.23
O       4.82      -1.24       1.25
O       3.60      -3.95       1.41
