11

Zn       0.16      -2.43       8.88
N       0.51      -4.13       7.62
N      -0.18      -0.87       7.46
C      -0.53      -4.84       7.14
C       1.60      -4.83       7.25
C      -1.26      -0.15       7.11
C       0.86      -0.14       7.00
C      -1.69      -3.63      10.06
O      -0.47      -3.68      10.44
O       0.75      -0.97      10.28
C       1.98      -1.14       9.99
