96

Mn      -1.90       7.97       4.05
Mn       8.58      -2.05       8.05
Mn       5.77      -3.61       6.05
Mn       7.05       9.54       6.05
Ge       3.17      -4.72      10.80
Ge       6.42       4.32       0.44
Ge       4.99       1.48       1.84
Ge       3.08       4.42       1.48
Ge       3.51      10.64       1.30
Ge       0.26       1.60      11.66
Ge       1.69       4.45      10.27
Ge       3.60       1.50      10.63
H      -3.05       7.30       8.94
H      -1.32       7.42       8.55
H       3.26      -3.19       8.28
H       1.49      -3.43       8.38
H       7.15      -1.62      11.01
H       8.86       4.71       0.10
H       8.90       7.32       0.30
H       7.24       7.26       0.81
H       5.33       0.28       4.04
H       6.30      -0.45       2.74
H       3.23      -0.78       2.94
H      -0.58      11.58       1.78
H       0.81       4.98       2.44
H       1.49       6.33       1.49
H       2.42       5.55       4.33
H       3.09       6.86       3.37
H       9.73      -1.38       3.17
H       8.00      -1.50       3.56
H       3.42       9.11       3.82
H       5.18       9.35       3.73
H      -0.48       7.54       1.09
H      -2.18       1.21      12.00
H      -2.22      -1.40      11.81
H      -0.56      -1.34      11.30
H       1.35       5.64       8.07
H       0.38       6.37       9.36
H       3.44       6.70       9.16
H       7.26      -5.66      10.32
H       5.87       0.94       9.66
H       5.19      -0.41      10.61
H       4.26       0.37       7.77
H       3.59      -0.94       8.73
C       2.68      -5.19       8.95
C       2.45      -3.91       8.12
C      -2.41       8.86       6.67
C       7.27      -1.84      12.08
C       8.17       6.67       0.78
C       8.64       6.44       2.21
C       5.30      -0.08       3.00
C       4.25      -1.17       2.81
C      -0.50      10.76       3.70
C       1.71       5.59       2.27
C       2.17       6.28       3.54
C       1.13       7.22       4.13
C       4.00      11.11       3.15
C       4.23       9.83       3.99
C       9.08      -2.94       5.44
C      -0.59       7.76       0.03
C      -1.49      -0.74      11.32
C      -1.96      -0.52       9.89
C       1.38       6.01       9.10
C       2.42       7.09       9.30
C       7.18      -4.84       8.40
C       4.97       0.34       9.83
C       4.51      -0.36       8.56
C       5.55      -1.30       7.97
S       5.03      -3.54      10.48
S       1.49      -3.47      11.60
S       3.56      -6.59      11.95
S       4.90       5.72       1.30
S       6.93       2.59       1.74
S       3.35       2.66       2.84
S       1.64       9.46       1.62
S       5.19       9.39       0.50
S       3.11      12.51       0.15
S       1.78       0.20      10.80
S      -0.25       3.34      10.36
S       3.32       3.26       9.26
O      -1.32       8.54       6.09
O      -3.51       8.75       5.99
O      -3.37       7.56       2.85
O       8.77       5.30       2.67
O      -1.39       9.88       3.52
O       5.32      -2.43       4.56
O      -0.09       7.01       3.87
O       1.59       8.16       4.88
O       7.99      -2.62       6.01
O      10.19      -2.83       6.12
O      10.05      -1.64       9.25
O      -2.09       0.62       9.43
O       8.07      -3.96       8.58
O       1.36       8.35       7.54
O       6.77      -1.09       8.23
O       5.08      -2.24       7.22
