25

Co       6.05       2.71      11.55
Co       6.86       5.81       6.25
Co       6.45       4.26       8.90
C       8.35       7.81       4.69
N       5.80       1.14      12.79
N       7.11       7.38       5.02
O       7.29       2.52       9.97
O       4.18       2.67      10.87
O       4.63       3.36       8.75
O       6.31       4.24       5.13
O       6.90       3.44       7.13
O       5.62       5.99       7.84
O       8.73       5.85       6.94
O       8.27       5.16       9.06
O       6.59       4.28      12.68
O       6.04       5.09      10.68
C       8.51       2.42      10.49
C       3.86       2.88       9.64
C       6.37       3.27       5.97
C       6.85       0.54      13.40
C       4.55       0.72      13.10
C       4.40       6.10       7.32
C       9.04       5.63       8.17
C       6.54       5.25      11.84
C       6.05       7.98       4.41
