270

C       3.73       8.13      30.95
C       3.17       9.24      30.25
C       3.13       9.23      28.83
C       3.75       8.18      28.13
C       4.37       7.11      28.81
C       4.27       7.03      30.22
C       2.64      10.31      31.00
C       4.65       5.87      30.93
C       3.70       8.09       0.85
C       3.12       9.17       1.58
C       2.98       9.06       2.99
C       3.63       8.00       3.67
C       4.30       6.98       2.97
C       4.22       6.96       1.55
C       2.63      10.28       0.87
C       4.61       5.83       0.79
C      13.76       7.43      10.09
C      14.99       7.37       9.37
C      14.98       7.46       7.95
C      13.75       7.41       7.27
C      12.53       7.38       7.96
C      12.53       7.45       9.38
C      -4.14       7.23      10.09
C      11.33       7.53      10.12
C      13.77       7.51      11.52
C      15.02       7.52      12.22
C      15.04       7.82      13.60
C      13.83       7.93      14.30
C      12.58       7.81      13.66
C      12.55       7.64      12.24
C      -4.13       7.29      11.49
C      11.34       7.66      11.52
C      -1.09      16.84      20.32
C      -1.79      15.81      19.63
C      -1.74      15.75      18.21
C      -1.16      16.81      17.50
C       9.62       0.28      18.16
C       9.71       0.27      19.58
C      -2.57      14.91      20.39
C      10.39       1.29      20.28
C      -1.09      16.87      21.75
C      -1.79      15.87      22.50
C      -1.71      15.86      23.92
C      -1.14      16.97      24.57
C       9.61       0.43      23.85
C       9.73       0.32      22.44
C      -2.58      14.95      21.78
C      10.42       1.29      21.68
C       7.21       5.30      27.18
C       7.35       5.75      25.84
C       8.02       4.96      24.88
C       8.57       3.69      25.22
C       8.42       3.25      26.56
C       7.76       4.04      27.52
C       7.64       6.67      23.23
C       6.99       7.47      24.20
C       7.86       7.12      21.83
C       7.02       8.37      21.45
C       7.00       9.42      22.59
C       6.45       8.81      23.90
C       9.22       2.87      24.17
C       6.54       6.14      28.20
C       9.46       7.77       5.81
C       9.79       7.02       4.66
C       8.77       6.38       3.91
C       7.40       6.51       4.27
C       7.08       7.30       5.39
C       8.10       7.92       6.15
C      10.45       5.43       2.47
C      11.46       6.06       3.23
C      10.75       4.55       1.31
C      12.22       4.66       0.80
C      13.22       4.72       1.98
C      12.91       5.90       2.93
C       6.38       5.69       3.55
C      10.54       8.27       6.72
C      11.21       3.05      16.14
C      10.36       3.26      15.02
C      10.15       4.57      14.50
C      10.80       5.69      15.08
C      11.69       5.46      16.16
C      11.89       4.16      16.67
C       8.55       3.68      12.94
C       8.73       2.39      13.49
C       7.57       3.96      11.86
C       7.02       2.69      11.16
C       6.71       1.57      12.19
C       7.97       1.20      13.02
C      10.39       7.09      14.77
C      11.22       1.74      16.85
C       1.72      11.99      26.68
C       1.17      11.28      25.58
C       0.03      11.79      24.89
C      -0.54      13.04      25.25
C       0.05      13.76      26.32
C       1.16      13.24      27.02
C      -0.02       9.80      23.54
C       1.09       9.29      24.24
C      -0.71       9.04      22.47
C       0.09       7.81      21.96
C       0.74       7.04      23.12
C       1.68       7.95      23.96
C      -1.85      13.46      24.66
C       2.78      11.36      27.53
C      -2.44       9.18       6.30
C      -2.77       9.62       5.00
C      -1.74       9.88       4.05
C      -0.37       9.71       4.39
C      -0.06       9.26       5.70
C      -1.08       9.01       6.63
C      -3.40      10.53       2.44
C      -4.42      10.30       3.40
C      -3.68      11.05       1.08
C      -5.18      10.98       0.68
C      -6.10      11.40       1.85
C      -5.86      10.53       3.11
C       0.68       9.94       3.36
C      -3.50       8.96       7.33
C      -1.97      12.36      16.64
C      -1.59      12.42      15.28
C      -2.04      11.44      14.36
C      -2.87      10.37      14.79
C      -3.25      10.32      16.15
C      -2.80      11.29      17.06
C      -0.81      12.54      12.61
C      -0.35      13.50      13.54
C      -0.39      12.53      11.19
C       0.30      13.85      10.73
C       1.29      14.38      11.80
C       0.57      14.61      13.16
C      -3.38       9.39      13.79
C      -1.50      13.38      17.62
H       3.74       8.18      27.11
H       3.56       7.95       4.69
H       2.26      11.10       1.36
H       2.26      11.14      30.54
H       4.86       4.96       1.25
H       4.93       5.02      30.44
H       4.65       5.24      28.10
H       4.38       5.11       3.64
H       2.52      10.81       3.87
H       1.35      10.16      28.52
H      13.75       7.40       6.24
H      13.86       8.16      15.30
H      -3.23       7.19      11.96
H      -3.25       7.08       9.62
H      10.45       7.80      11.98
H      10.42       7.56       9.65
H      10.81       6.37       7.59
H      11.05       8.98      14.21
H      -3.50       7.40      14.44
H      -3.54       6.87       7.27
H      -1.21      16.82      16.48
H      -1.20      17.04      25.59
H      -3.21      14.31      22.27
H      -3.18      14.22      19.93
H      10.95       2.04      22.14
H      10.88       2.04      19.79
H       9.42       2.26      17.82
H      10.92       1.73      24.65
H      -3.31      14.92      24.64
H      -3.24      14.55      17.60
H       7.68       3.68      28.47
H       8.79       2.34      26.85
H       7.60       6.31      21.15
H       8.92       7.35      21.71
H       5.99       8.07      21.23
H       7.44       8.82      20.54
H       6.39      10.28      22.29
H       8.02       9.79      22.75
H       5.36       8.74      23.85
H       6.70       9.49      24.72
H       9.97       3.50      23.68
H       8.44       2.65      23.44
H       6.95       7.15      28.15
H       6.78       5.77      29.20
H       7.83       8.43       7.00
H       6.12       7.38       5.71
H      10.08       4.80       0.49
H      10.55       3.52       1.61
H      12.32       5.57       0.20
H      12.44       3.80       0.17
H      14.24       4.82       1.59
H      13.17       3.78       2.54
H      13.26       6.84       2.48
H      13.46       5.75       3.87
H       6.56       4.66       3.86
H       6.61       5.75       2.49
H      10.12       8.81       7.58
H      11.16       8.98       6.17
H      12.48       4.06      17.50
H      12.13       6.25      16.64
H       8.05       4.59      11.10
H       6.75       4.53      12.30
H       7.76       2.32      10.44
H       6.11       2.94      10.61
H       6.35       0.68      11.66
H       5.92       1.91      12.86
H       8.64       0.58      12.41
H       7.65       0.61      13.88
H       9.87       7.47      15.65
H       9.66       7.12      13.96
H      11.94       1.74      17.67
H      11.51       0.95      16.16
H       1.51      13.76      27.82
H      -0.37      14.63      26.65
H      -0.91       9.71      21.63
H      -1.68       8.71      22.86
H       0.87       8.15      21.27
H      -0.58       7.15      21.40
H       1.32       6.20      22.73
H      -0.04       6.63      23.77
H       2.62       8.10      23.43
H       1.90       7.45      24.90
H      -2.60      12.84      25.16
H      -1.85      13.15      23.62
H       3.07      12.02      28.36
H       3.66      11.18      26.92
H      -0.81       8.69       7.57
H       0.91       9.10       5.98
H      -3.10      10.48       0.35
H      -3.34      12.09       1.04
H      -5.43       9.96       0.38
H      -5.36      11.63      31.35
H      13.19      11.32       1.54
H      -5.91      12.45       2.10
H      14.00       9.55       2.97
H      -6.33      11.02       3.97
H       0.50      10.94       2.94
H       0.47       9.22       2.56
H      -4.23       9.77       7.27
H      -3.07       9.03       8.33
H      -3.11      11.23      18.04
H      -3.87       9.58      16.49
H      -1.26      12.36      10.56
H       0.30      11.69      11.04
H      -0.46      14.61      10.54
H       0.84      13.67       9.80
H       1.73      15.31      11.46
H       2.09      13.65      11.94
H      -0.01      15.53      13.12
H       1.33      14.73      13.94
H      -2.52       9.03      13.22
H      -4.01       9.96      13.10
H      -0.43      13.53      17.48
H      -1.63      13.00      18.64
N       5.07       6.17      28.00
N       4.92       5.97       3.76
N       2.11       9.87       3.78
N       2.27      10.07      28.08
N      11.37       7.13       7.19
N      11.47       8.08      14.49
N      -4.12       8.20      14.32
N      -4.19       7.65       7.14
N       9.86       1.44      17.38
N       9.91       1.60      24.60
N      -2.30      14.88      24.77
N      -2.23      14.67      17.44
N       8.13       5.46      23.62
N       6.87       6.96      25.46
N       9.16       5.61       2.85
N      11.08       6.83       4.28
N       9.25       4.70      13.49
N       9.63       2.24      14.49
N      -0.51      11.01      23.91
N       1.63      10.06      25.22
N      -2.12      10.33       2.82
N      -4.06       9.84       4.62
N      -1.62      11.55      13.07
N      -0.77      13.41      14.82
