45

Ca       0.52       0.36      15.37
O      -1.67      -1.18       9.69
O       1.27      -0.69      13.21
Ca       4.76      -1.01      15.04
Ca      -0.52      -0.35      11.60
O      -3.09      -0.56      11.27
O       1.02      -1.81      10.45
C      -2.87      -1.17      10.16
Ca      -4.76       1.02      11.93
Ca       7.98       0.01      13.48
H      -2.19       0.46      14.06
H      -1.43       1.46      13.12
O      -6.15       1.13      10.11
C       1.11      -2.41       9.35
O       8.22      -0.05      11.19
O      -3.84       0.32      14.03
O      -5.70      -0.75      13.42
O      -6.72       2.02      13.28
O      -4.84       3.16      12.81
O       1.52      -2.07      15.44
O      -0.65      -1.58      15.72
C       2.87       1.18      16.80
C      -1.11       2.42      17.61
C      -7.29       0.57      10.17
C       7.30      -0.56      16.80
C      -4.74      -0.56      14.27
H       2.19      -0.45      12.90
H       1.44      -1.45      13.84
C      -5.95       3.04      13.44
C       0.32      -2.42      15.75
C       4.75       0.57      12.70
O      -1.27       0.70      13.75
O       1.68       1.19      17.28
O       3.10       0.57      15.69
O      -1.01       1.82      16.51
C       5.95      -3.03      13.53
O       7.75       0.06      15.77
O       6.15      -1.12      16.85
C      -0.32       2.43      11.21
O       3.84      -0.31      12.93
O       5.70       0.76      13.54
O       6.72      -2.01      13.68
O       4.85      -3.15      14.15
O      -1.51       2.08      11.53
O       0.66       1.59      11.24
