17

Cu       2.10       1.50       2.09
Cu      -2.10      -1.50      -2.09
Cu       0.00      -0.00      -0.00
C       0.13      -2.89      -3.54
P       2.40      -1.45       1.15
O       0.88      -1.41       1.02
P       1.98       1.45      -1.15
O       1.32       1.54       0.30
O       3.00      -0.19       1.87
O       3.27       2.07       3.61
O       0.83       2.90       2.70
O      -0.88       1.41      -1.02
O      -1.32      -1.54      -0.30
O       1.38       0.19      -1.87
O      -3.27      -2.07      -3.61
O      -0.83      -2.90      -2.70
C       4.25       2.89       3.54
