16

C       9.85       1.29       6.66
C      10.40       2.94       1.97
C      10.37       1.81       2.97
C      10.02       2.04       4.29
C      10.48      -0.23       4.82
C      10.10       1.02       5.23
C      10.77       0.55       2.59
O      10.57       0.69       7.53
O       8.94       2.10       7.04
C      10.79      -0.47       3.50
O      10.73       2.67       0.79
O      10.15       4.09       2.41
H       9.74       2.89       4.55
H      10.53      -0.92       5.44
H      11.03       0.40       1.71
H      11.01      -1.33       3.22
