16

C      12.26       8.07      10.16
H      16.04       5.62       9.55
H      11.36       5.62       9.55
C      14.41       6.78       9.85
C      13.00       4.44       9.25
C      12.26       3.17       8.95
O      12.96       9.03      10.58
O      10.99       8.10       9.96
C      14.41       4.46       9.26
C      15.11       5.62       9.55
O      10.99       3.14       9.15
C      12.29       5.62       9.55
H      14.88       7.56      10.05
O      12.96       2.21       8.53
C      13.00       6.80       9.86
H      14.88       3.68       9.06
