618

C       6.20      17.28      21.71
C       5.19      16.28      21.68
C       6.49      14.98      19.94
C       7.49      15.99      19.90
C       8.61      15.81      19.05
C       8.80      14.63      18.29
C       7.80      13.64      18.35
C       6.65      13.82      19.14
C       4.04      16.44      22.47
C       3.86     -12.02      23.27
C       4.84     -11.01      23.32
C       6.02     -11.20      22.56
C       8.62      17.13      21.71
C       9.63     -11.48      21.68
C       8.33     -10.18      19.94
C       7.34      18.41      19.90
C       8.18      -9.02      19.14
C       7.03      -8.84      18.35
C       6.03      19.77      18.29
C       6.22      18.60      19.05
C       8.81      16.00      22.56
C       9.98      15.81      23.32
C      10.97      16.82      23.27
C      10.79     -11.64      22.47
C       7.41      17.20      20.81
C       9.53     -10.28      20.81
C       5.30      15.08      20.81
C       4.62      -9.73      24.06
C      10.08      14.41      17.55
C       4.75      20.00      17.55
C      10.21      14.54      24.06
C       6.20       2.33       6.04
C       5.19       3.32       6.07
C       6.49       4.62       7.82
C       7.49       3.61       7.85
C       8.62       3.80       8.69
C       8.81       4.97       9.44
C       7.81       5.96       9.40
C       6.66       5.78       8.61
C       4.03       3.16       5.28
C       3.85       2.01       4.49
C       4.84       1.00       4.45
C       6.02       1.20       5.20
C       8.62       2.48       6.04
C       9.64       1.48       6.07
C       8.33       0.18       7.82
C       7.34       1.19       7.85
C       8.17      -0.98       8.61
C       7.02      -1.16       9.40
C       6.01      -0.17       9.44
C       6.21       1.01       8.69
C       8.81       3.61       5.20
C       9.99       3.80       4.45
C      10.98       2.80       4.49
C      10.79       1.65       5.28
C       7.41       2.40       6.94
C       9.53       0.28       6.94
C       5.30       4.52       6.94
C       4.61      -0.29       3.73
C      10.10       5.21      10.15
C       4.73      -0.41      10.15
C      10.22       5.09       3.73
C      11.74      14.93      26.09
C      12.97      14.75      25.42
C      14.20      14.89      26.09
C      14.23     -14.44      27.48
C      27.80       0.54       0.44
C      11.78     -14.35      27.47
C       0.65       0.31       0.46
C       1.63       1.31       0.30
C       2.89       1.18       0.93
C       3.19       0.04       1.71
C       2.21      -0.97       1.84
C       0.95      28.77       1.24
C       3.09     -10.12      26.09
C       1.85      -9.95      25.42
C       0.63     -10.08      26.09
C       0.60     -10.36      27.48
C      16.62       4.26       0.44
C       3.05     -10.45      27.47
C      14.18       4.50       0.46
C      13.19       3.50       0.30
C      11.94       3.63       0.93
C      11.64       4.77       1.71
C      12.62       5.78       1.84
C      13.88       5.64       1.24
C       9.69      12.88      15.52
C       9.86      11.64      16.20
C       9.73      10.42      15.52
C       9.45      10.39      14.13
C       9.27      11.61      13.45
C       9.37      12.83      14.14
C       9.51       9.17      13.43
C       8.51       8.18      13.59
C       8.64       6.93      12.96
C       9.78       6.63      12.18
C      10.79       7.61      12.05
C      10.65       8.87      12.65
C       5.14      -8.07      15.52
C       4.97      -6.84      16.20
C       5.10      -5.61      15.52
C       5.38      -5.59      14.13
C       5.56      -6.81      13.45
C       5.46      21.57      14.14
C       5.32      -4.36      13.43
C       6.32      -3.38      13.59
C       6.19      -2.13      12.96
C       5.05      -1.82      12.18
C       4.04      -2.80      12.05
C       4.18      -4.07      12.65
C      -2.99      -3.13      21.71
C      -4.00      -4.13      21.68
C      -2.70      -5.43      19.94
C      -1.71      -4.42      19.90
C      -0.58      -4.60      19.05
C      -0.39      -5.78      18.29
C      -1.40      -6.76      18.35
C      -2.54      -6.58      19.14
C      -5.16      -3.97      22.47
C      -5.34      -2.82      23.27
C      -4.35      -1.82      23.32
C      -3.17      -2.01      22.56
C      -0.57      -3.28      21.71
C       0.44      -2.29      21.68
C      -0.86      -0.98      19.94
C      -1.85      -2.00      19.90
C      -1.02       0.17      19.14
C      -2.16       0.35      18.35
C      -3.17      -0.64      18.29
C      -2.98      -1.81      19.05
C      -0.38      -4.40      22.56
C       0.79      -4.59      23.32
C       1.78      -3.59      23.27
C       1.60      -2.44      22.47
C      -1.78      -3.21      20.81
C       0.34      -1.09      20.81
C      -3.90      -5.32      20.81
C      -4.57      -0.54      24.06
C       0.89      -6.00      17.55
C      -4.44      -0.41      17.55
C       1.01      -5.87      24.06
C      -2.99      11.52       6.04
C      25.60      12.51       6.07
C      -2.70      13.82       7.82
C      -1.71      12.80       7.85
C      -0.57      12.99       8.69
C      -0.38      14.17       9.44
C      -1.38      15.16       9.40
C      -2.53      14.97       8.61
C      24.44      12.35       5.28
C      24.26      11.20       4.49
C      25.25      10.19       4.45
C      26.43      10.39       5.20
C      -0.57      11.67       6.04
C       0.44      10.68       6.07
C      -0.86       9.37       7.82
C      -1.85      10.39       7.85
C      -1.02       8.21       8.61
C      -2.18       8.03       9.40
C      -3.18       9.02       9.44
C      -2.98      10.20       8.69
C      -0.38      12.80       5.20
C       0.79      12.99       4.45
C       1.78      11.99       4.49
C       1.60      10.84       5.28
C      -1.78      11.59       6.94
C       0.34       9.48       6.94
C      25.70      13.71       6.94
C      25.01       8.91       3.73
C       0.91      14.40      10.15
C      -4.47       8.79      10.15
C       1.03      14.28       3.73
C       2.55      -5.48      26.09
C       3.78      -5.65      25.42
C       5.01      -5.52      26.09
C       5.03      -5.24      27.48
C      18.61       9.74       0.44
C       2.59      -5.16      27.47
C      21.06       9.50       0.46
C      22.04      10.50       0.30
C      23.29      10.37       0.93
C      23.60       9.23       1.71
C      22.62       8.22       1.84
C      21.35       8.36       1.24
C      -6.10      -0.93      26.09
C      -7.34      -0.76      25.42
C      -8.56      -0.89      26.09
C      -8.59      -1.17      27.48
C       7.43      13.45       0.44
C      -6.15      -1.25      27.47
C       4.99      13.69       0.46
C       4.00      12.69       0.30
C       2.75      12.82       0.93
C       2.45      13.96       1.71
C       3.43      14.97       1.84
C       4.69      14.83       1.24
C       0.50      -7.53      15.52
C       0.67      20.83      16.20
C       0.54      19.61      15.52
C       0.26      19.58      14.13
C       0.08      20.80      13.45
C       0.17      22.03      14.14
C       0.32      18.36      13.43
C      -0.68      17.38      13.59
C      -0.55      16.12      12.96
C       0.59      15.82      12.18
C       1.60      16.80      12.05
C       1.46      18.06      12.65
C      -4.05       1.12      15.52
C      -4.23       2.35      16.20
C      -4.10       3.58      15.52
C      -3.82       3.61      14.13
C      -3.64       2.38      13.45
C      -3.73       1.16      14.14
C      -3.87       4.83      13.43
C      -2.87       5.81      13.59
C      -3.00       7.07      12.96
C      -4.14       7.37      12.18
C      -5.15       6.39      12.05
C      -5.01       5.13      12.65
C      17.42       6.06      21.71
C      16.41       5.07      21.68
C      17.71       3.77      19.94
C      18.70       4.78      19.90
C      -9.77       4.59      19.05
C      -9.58       3.42      18.29
C      19.01       2.43      18.35
C      17.87       2.61      19.14
C      15.25       5.22      22.47
C      15.07       6.37      23.27
C      16.06       7.37      23.32
C      17.23       7.18      22.56
C      -9.76       5.91      21.71
C      -8.75       6.91      21.68
C     -10.05       8.21      19.94
C      18.56       7.20      19.90
C     -10.21       9.36      19.14
C      18.25       9.54      18.35
C      17.24       8.56      18.29
C      17.43       7.38      19.05
C      -9.58       4.79      22.56
C      -8.40       4.60      23.32
C      -7.41       5.60      23.27
C      -7.59       6.75      22.47
C     -10.97       5.99      20.81
C      -8.85       8.10      20.81
C      16.51       3.87      20.81
C      15.84       8.65      24.06
C      -8.31       3.19      17.55
C      15.96       8.78      17.55
C      -8.18       3.32      24.06
C      17.42      20.71       6.04
C      16.41      21.71       6.07
C      17.71      23.01       7.82
C      18.70      22.00       7.85
C      19.83      22.18       8.69
C      20.03      23.36       9.44
C      19.03      24.35       9.40
C      17.87      24.17       8.61
C      15.25      21.54       5.28
C      15.07      20.39       4.49
C      16.06      19.39       4.45
C      17.24      19.58       5.20
C      19.84      20.86       6.04
C      20.85      19.87       6.07
C      19.55      18.57       7.82
C      18.56      19.58       7.85
C      19.39      17.41       8.61
C      18.23      17.22       9.40
C      17.23      18.21       9.44
C      17.42      19.39       8.69
C      20.02      21.99       5.20
C      21.20      22.19       4.45
C      22.19      21.18       4.49
C      22.01      20.03       5.28
C      18.63      20.79       6.94
C      20.75      18.67       6.94
C      16.51      22.90       6.94
C      15.82      18.10       3.73
C      21.32      23.59      10.15
C      15.94      17.98      10.15
C      21.44      23.47       3.73
C      -6.64       3.71      26.09
C      -5.41       3.54      25.42
C      -4.19       3.67      26.09
C      -4.16       3.95      27.48
C       9.42      18.93       0.44
C      -6.60       4.03      27.47
C      11.86      18.69       0.46
C      12.85      19.69       0.30
C      14.10      19.56       0.93
C      14.40      18.42       1.71
C      13.42      17.41       1.84
C      12.16      17.55       1.24
C      14.30       8.26      26.09
C      13.07       8.43      25.42
C      11.84       8.30      26.09
C      11.82       8.02      27.48
C      27.84      22.64       0.44
C      14.26       7.94      27.47
C      25.40      22.88       0.46
C      24.41      21.88       0.30
C      23.16      22.01       0.93
C      22.85      23.15       1.71
C      23.83      24.16       1.84
C      25.10      24.02       1.24
C      20.91       1.66      15.52
C      -8.52       0.43      16.20
C      20.95      -0.80      15.52
C      20.67      -0.82      14.13
C      20.49       0.40      13.45
C      20.58       1.62      14.14
C      20.73      -2.05      13.43
C      19.73      -3.03      13.59
C      19.85      -4.29      12.96
C      21.00      -4.59      12.18
C      22.00      -3.61      12.05
C      21.86      -2.35      12.65
C      16.35      10.31      15.52
C      16.18      11.55      16.20
C      16.31      12.77      15.52
C      16.59      12.80      14.13
C      16.77      11.58      13.45
C      16.68      10.35      14.14
C      16.53      14.02      13.43
C      17.53      15.01      13.59
C      17.40      16.26      12.96
C      16.26      16.56      12.18
C      15.26      15.58      12.05
C      15.40      14.32      12.65
H      11.85      16.72      23.78
H      11.54     -10.93      22.45
H       8.88      -8.28      19.16
H       6.93      -7.97      17.83
H       5.48      17.88      19.05
H       8.09      15.27      22.56
H       9.34      16.52      19.05
H       7.90      12.77      17.83
H       5.95      13.08      19.16
H       6.73     -10.47      22.56
H       3.29      15.74      22.45
H       2.98     -11.92      23.79
H       9.56      -9.40      21.45
H      10.41     -10.25      20.16
H       4.41      15.06      20.16
H       5.27      14.20      21.45
H       3.82      -9.18      23.58
H       5.51      -9.10      23.95
H      10.64      13.60      18.03
H      10.72      15.29      17.66
H       4.19      -8.80      18.03
H       4.11      19.11      17.66
H       9.32      13.90      23.95
H      11.01      13.98      23.58
H      11.85       2.92       3.98
H      11.54       0.95       5.30
H       8.87      -1.72       8.59
H       6.90      -2.04       9.91
H       5.47       1.72       8.69
H       8.09       4.34       5.20
H       9.35       3.08       8.69
H       7.93       6.84       9.91
H       5.96       6.53       8.59
H       6.73       0.46       5.20
H       3.29       3.86       5.30
H       2.97       1.89       3.98
H       9.56      -0.60       6.30
H      10.41       0.26       7.59
H       4.41       4.55       7.59
H       5.27       5.40       6.30
H       3.73      -0.76       4.18
H       5.44      -0.97       3.91
H      10.58       6.09       9.71
H      10.79       4.38       9.98
H       4.25      -1.28       9.71
H       4.04       0.42       9.98
H       9.39       5.78       3.91
H      11.10       5.57       4.17
H      27.80       0.72       1.44
H      25.71       0.56       0.27
H     -13.35     -12.67      27.44
H       3.59       1.90       0.79
H       2.42      27.77       2.35
H      13.01      14.50      24.43
H       0.27      28.01       1.33
H      15.07      14.71      25.58
H       5.19       0.45       1.88
H      10.05      13.91      26.01
H      16.63       4.08       1.45
H      18.72       4.25       0.27
H      -1.42     -12.12      27.44
H      11.24       2.90       0.79
H      12.41       6.64       2.35
H       1.82      -9.70      24.43
H      14.56       6.40       1.33
H      -0.24      -9.90      25.58
H       9.63       4.36       1.87
H       4.78      -9.10      26.01
H       9.09      11.62      12.44
H       9.26      13.71      13.62
H       7.69       8.37      14.17
H       7.91       6.22      13.10
H      11.65       7.40      11.53
H      10.11      11.61      17.18
H      11.41       9.55      12.56
H       9.91       9.55      16.03
H       9.37       4.62      12.01
H      10.71      14.57      15.60
H       5.73      22.78      12.44
H       5.57      20.70      13.62
H       7.14      -3.56      14.17
H       6.92      -1.42      13.10
H       3.18      -2.59      11.53
H       4.71      -6.81      17.18
H       3.42      -4.75      12.56
H       4.92      -4.74      16.03
H       5.46       0.18      12.01
H       4.12      19.83      15.60
H       2.65      -3.69      23.78
H       2.34      -1.74      22.45
H      -0.31       0.92      19.16
H      -2.26       1.22      17.83
H      -3.71      -2.53      19.05
H      -1.10      -5.14      22.56
H       0.15      -3.89      19.05
H      -1.30      -7.64      17.83
H      -3.24      -7.33      19.16
H      -2.46      -1.28      22.56
H      -5.90      -4.67      22.45
H      -6.21      -2.72      23.79
H       0.37      -0.21      21.45
H       1.22      -1.06      20.16
H      -4.78      -5.35      20.16
H      -3.92      -6.21      21.45
H      -5.38       0.02      23.58
H      -3.69       0.10      23.95
H       1.44      -6.80      18.03
H       1.52      -5.11      17.66
H      -5.00       0.39      18.03
H      -5.08      -1.30      17.66
H       0.13      -6.51      23.95
H       1.82      -6.43      23.58
H       2.66      12.11       3.98
H       2.35      10.14       5.30
H      -0.32       7.47       8.59
H      -2.29       7.15       9.91
H      -3.72      10.91       8.69
H      -1.10      13.53       5.20
H       0.16      12.28       8.69
H      -1.26      16.03       9.91
H      -3.23      15.72       8.59
H      -2.46       9.66       5.20
H      23.70      13.05       5.30
H      23.38      11.08       3.98
H       0.36       8.60       6.30
H       1.22       9.45       7.59
H      24.82      13.74       7.59
H      25.68      14.59       6.30
H      24.14       8.43       4.18
H      25.84       8.22       3.91
H       1.39      15.28       9.71
H       1.60      13.57       9.98
H      -4.94       7.91       9.71
H      -5.16       9.62       9.98
H       0.20      14.97       3.91
H       1.91      14.76       4.17
H      18.60       9.91       1.44
H      16.52       9.75       0.27
H       7.06      -3.48      27.44
H      24.00      11.10       0.79
H      22.83       7.36       2.35
H       3.81      -5.91      24.43
H      20.67       7.60       1.33
H       5.88      -5.70      25.58
H      25.60       9.64       1.88
H       0.86      -6.50      26.01
H       7.44      13.27       1.45
H       9.52      13.44       0.27
H     -10.61      -2.93      27.44
H       2.04      12.09       0.79
H       3.22      15.83       2.35
H      -7.37      -0.51      24.43
H       5.37      15.59       1.33
H      -9.43      -0.71      25.58
H       0.44      13.55       1.87
H      -4.41       0.09      26.01
H      -0.10      20.81      12.44
H       0.07      -6.70      13.62
H      -1.50      17.56      14.17
H      -1.28      15.42      13.10
H       2.45      16.59      11.53
H       0.92      -8.80      17.18
H       2.22      18.74      12.56
H       0.72      18.74      16.03
H       0.18      13.81      12.01
H       1.51      -5.84      15.60
H      -3.46       2.37      12.44
H      -3.62       0.29      13.62
H      -2.06       5.63      14.17
H      -2.28       7.77      13.10
H      -6.01       6.60      11.53
H      -4.48       2.38      17.18
H      -5.77       4.45      12.56
H      -4.27       4.45      16.03
H      -3.73       9.37      12.01
H      -5.07      -0.57      15.60
H      -6.54       5.50      23.78
H      -6.85       7.45      22.45
H      -9.51      10.11      19.16
H      18.15      10.42      17.83
H      16.70       6.67      19.05
H     -10.29       4.06      22.56
H      -9.04       5.31      19.05
H      19.11       1.56      17.83
H      17.16       1.86      19.16
H     -11.65       7.92      22.56
H      14.51       4.52      22.45
H      14.20       6.47      23.79
H      -8.83       8.99      21.45
H      -7.97       8.13      20.16
H      15.63       3.84      20.16
H      16.49       2.99      21.45
H      15.03       9.21      23.58
H      16.72       9.29      23.95
H      -7.75       2.39      18.03
H      -7.67       4.08      17.66
H      15.41       9.58      18.03
H      15.33       7.89      17.66
H      -9.06       2.68      23.95
H      -7.37       2.76      23.58
H      23.07      21.30       3.98
H      22.76      19.33       5.30
H      20.08      16.66       8.59
H      18.12      16.35       9.91
H      16.69      20.11       8.69
H      19.31      22.73       5.20
H      20.57      21.47       8.69
H      19.14      -4.37       9.91
H      17.17      24.91       8.59
H      17.95      18.85       5.20
H      14.50      22.24       5.30
H      14.19      20.27       3.98
H      20.77      17.79       6.30
H      21.63      18.64       7.59
H      15.63      22.93       7.59
H      16.49      23.79       6.30
H      14.94      17.62       4.18
H      16.65      17.41       3.91
H      21.80      -5.13       9.71
H      22.01      22.76       9.98
H      15.46      17.10       9.71
H      15.25      18.81       9.98
H      20.61      24.16       3.91
H      22.31      23.95       4.17
H       9.41      19.11       1.44
H       7.33      18.94       0.27
H      -2.13       5.71      27.44
H      14.81      20.29       0.79
H      13.63      16.55       2.35
H      -5.38       3.29      24.43
H      11.48      16.79       1.33
H      -3.31       3.49      25.58
H      16.41      18.83       1.88
H      -8.34       2.69      26.01
H      27.85      22.47       1.45
H       0.33      22.63       0.27
H       9.79       6.26      27.44
H      22.45      21.28       0.79
H      23.62      25.02       2.35
H      13.04       8.69      24.43
H      25.78      24.78       1.33
H      10.97       8.48      25.58
H      20.85      22.74       1.87
H     -13.60       9.28      26.01
H      20.31       0.41      12.44
H      20.47       2.49      13.62
H      18.91      -2.85      14.17
H      19.13      -4.99      13.10
H      22.86      -3.82      11.53
H      -8.27       0.40      17.18
H      22.63      -1.67      12.56
H      -8.48      -1.67      16.03
H      20.58      23.01      12.01
H      -7.68       3.35      15.60
H      16.95      11.57      12.44
H      16.79       9.48      13.62
H      18.35      14.82      14.17
H      18.13      16.96      13.10
H      14.40      15.79      11.53
H      15.93      11.58      17.18
H      14.63      13.64      12.56
H      16.13      13.64      16.03
H      16.68      18.57      12.01
H      15.34       8.62      15.60
N       4.48      -0.19       2.26
N      10.45      14.72      25.52
N      10.35       4.99       2.26
N       4.38      -9.92      25.52
N      10.00       5.34      11.63
N       9.90      14.17      16.09
N       4.83      -0.53      11.63
N       4.93      20.24      16.09
N      24.89       9.01       2.26
N       1.26      -5.69      25.52
N       1.15      14.18       2.26
N      -4.81      -0.72      25.52
N       0.81      14.53      11.63
N       0.70      -6.24      16.09
N      -4.37       8.66      11.63
N      -4.26      -0.17      16.09
N      15.70      18.20       2.26
N      -7.93       3.50      25.52
N      21.56      23.37       2.26
N      15.59       8.47      25.52
N      21.22      -5.88      11.63
N      -8.49       2.95      16.09
N      16.04      17.85      11.63
N      16.15       9.02      16.09
