146

C       0.51      13.73      33.51
C       0.08      12.40      33.52
C      15.75      12.38      33.54
C      15.28      13.70      33.55
C      13.90      13.98      33.58
C      12.95      12.92      33.60
C      13.44      11.59      33.58
C      14.83      11.31      33.56
C       1.03      11.36      33.50
C       2.41      11.67      33.45
C       2.86      13.02      33.42
C       1.89      14.05      33.46
C      16.38      15.61      32.40
C      16.38      16.93      32.86
C      16.40      16.92       0.13
C      16.42      15.59       0.56
C      16.39       0.90       1.07
C      16.40       0.60       2.45
C      16.41      16.32       2.92
C      16.43      15.28       1.94
C      16.36      15.32      31.02
C      16.34      16.37      30.06
C      16.34       0.64      30.54
C      16.36       0.93      31.93
C      16.42      14.66      33.54
C      16.41      15.98       4.28
C      16.30      16.06      28.69
C       4.22      13.35      33.29
C      11.58      13.22      33.67
C      13.73      15.31      16.50
C      12.40      15.74      16.52
C      12.39       0.08      16.54
C      13.71       0.54      16.54
C      13.99       1.92      16.56
C      12.94       2.87      16.58
C      11.60       2.38      16.57
C      11.32       1.00      16.55
C      11.36      14.80      16.49
C      11.66      13.42      16.43
C      13.01      12.96      16.39
C      14.04      13.93      16.44
C      15.59      16.49      15.37
C      16.92      16.47      15.80
C      16.93      16.46      17.20
C      15.61      16.45      17.66
C       0.93      16.46      18.13
C       0.64      16.48      19.52
C      16.37      16.49      20.00
C      15.32      16.47      19.04
C      15.28      16.52      13.99
C      16.31      16.54      13.01
C       0.59      16.52      13.47
C       0.90      16.49      14.85
C      14.66      16.46      16.52
C      16.05      16.55      21.37
C      15.97      16.63      11.66
C      13.34      11.61      16.25
C      13.24       4.24      16.64
C      16.62      16.63       6.54
C      15.54      17.02       8.65
C      16.65      16.50       9.35
C       0.68      16.11       7.24
C       1.92      15.65       6.55
C      16.72      16.54      23.63
C      16.96       0.79      25.62
C      16.58      16.77      26.42
C      16.33      15.43      24.43
C      16.01      14.10      23.87
C       6.51      12.66      33.55
C       8.51      11.39      33.13
C       9.32      12.49      33.47
C       7.32      13.77      33.91
C       6.79      15.07       0.27
C      12.66       9.31      16.51
C      11.40       7.31      16.10
C      12.50       6.51      16.44
C      13.78       8.51      16.88
C      15.08       9.04      17.36
H      16.31       1.43      29.89
H      16.35       1.90      32.25
H      16.37       1.88       0.76
H      16.39       1.37       3.12
H      16.44      14.30       2.22
H      16.36      14.34      30.72
H      13.59      14.96      33.60
H      12.79      10.80      33.61
H      15.16      10.35      33.55
H       2.17      15.03      33.43
H       0.72      10.38      33.50
H       3.07      10.90      33.40
H      16.10      15.12      28.43
H      16.28      15.03       4.53
H       4.44      14.23      32.90
H      11.31      14.15      33.91
H       1.36      16.55      12.81
H       1.87      16.48      15.16
H       1.89      16.47      17.81
H       1.42      16.50      20.17
H      14.34      16.48      19.34
H      14.29      16.54      13.71
H      14.97       2.22      16.57
H      10.81       3.03      16.59
H      10.35       0.67      16.54
H      15.03      13.65      16.41
H      10.38      15.10      16.49
H      10.89      12.75      16.37
H      15.02      16.85      11.43
H      15.09      16.66      21.63
H      14.21      11.38      15.83
H      14.17       4.51      16.87
H      14.73       0.33       9.14
H       2.71      15.44       7.28
H       2.28      16.45       5.90
H       1.46      13.74       6.36
H       0.15       1.69      26.03
H      15.86      13.37      24.66
H      16.86      13.76      23.26
H      14.07      14.34      23.59
H       8.92      10.49      32.85
H       7.56      15.61       0.84
H       5.96      14.90       0.95
H       7.13      16.16      32.78
H      10.50       6.90      15.83
H      15.62       8.27      17.93
H      14.90       9.87      18.05
H      16.16       8.72      15.74
N      15.58       0.01       7.29
N       0.64      16.08       8.60
N      16.58      16.84       5.23
N      16.79      16.45      10.68
N      17.04       0.64      24.27
N      16.28      15.61      25.78
N      16.92      16.48      22.31
N      16.55      16.91      27.75
N       7.16      11.51      33.19
N       8.67      13.62      33.86
N       5.18      12.55      33.61
N      10.65      12.36      33.44
N      11.52       8.66      16.16
N      13.64       7.15      16.82
N      12.55      10.64      16.58
N      12.38       5.18      16.42
O       1.69      14.48       5.76
O      14.85      14.13      23.03
O       6.35      15.91      33.33
O      15.91       9.50      16.29
