17

O       3.45       2.43       9.17
C       4.20       3.44       5.01
O       5.88       2.76       9.23
C       4.09       3.09       6.34
O       4.40       4.63       9.88
C       4.54       3.96       7.35
O       5.99       7.74       6.27
H       3.64       2.14       6.62
O       5.87       7.20       4.07
H       5.43       5.86       7.80
C       5.08       5.19       7.02
C       5.71       6.90       5.30
H       3.83       2.80       4.21
S       4.56       3.41       9.04
C       5.19       5.58       5.67
O       4.91       4.98       3.35
C       4.78       4.68       4.66
