17

C       3.48       9.21      17.40
O       3.76       9.81      19.72
C       3.89      10.11      18.42
C       4.46      11.34      18.06
O       5.22      12.35      13.90
O       2.78      12.03      13.85
C       4.58      11.70      16.73
O       4.27      10.16      13.19
C       4.12      10.83      15.72
O       2.68       7.05      16.81
C       3.59       9.60      16.05
O       2.79       7.59      19.00
H       5.02      12.65      16.45
C       2.95       7.89      17.77
H       3.23       8.93      15.27
H       4.83      11.99      18.86
S       4.11      11.38      14.03
