22

O      10.96       4.86       7.89
O      12.26       3.02       7.93
H      11.30       1.40       6.06
H      11.15       5.72       2.02
H      10.94       1.15       3.68
H      10.03       7.72       2.88
H       9.07       7.65       5.14
H       9.30       5.74       6.58
C      10.87       3.29       3.26
C      10.83       4.56       3.83
C      10.54       4.62       5.20
C      11.10       2.28       5.46
C      11.00       2.15       4.08
C      10.80       5.72       3.04
C      10.17       6.85       3.52
C       9.65       6.84       4.80
C       9.82       5.74       5.64
C      10.87       3.52       6.04
C      11.31       3.75       7.41
C      10.32       3.11       1.94
O      10.44       1.94       1.49
O       9.50       3.98       1.44
