34

N       9.96       3.54       6.15
N      10.69       3.18       7.24
H      10.32       8.17       3.52
O       7.59       5.78       2.21
O      12.92       7.97       6.34
O      11.31       9.37       5.55
O       9.23       7.20       1.51
O       9.07       2.77       5.67
H      11.66       5.74       6.80
H       8.70       4.22       4.02
O      13.06       0.94      11.18
O       7.72      -1.25       7.05
O       9.34      -2.65       7.85
O      11.42      -0.48      11.88
O      11.58       3.95       7.72
H      10.33      -1.45       9.88
H       8.99       0.98       6.59
H      11.95       2.50       9.37
C      11.04       7.07       5.23
C      10.28       7.23       4.07
C       9.46       6.19       3.62
C      11.83       8.23       5.75
C       8.69       6.40       2.34
C      11.03       5.85       5.93
C       9.37       5.00       4.34
C      10.17       4.83       5.49
C       9.61      -0.35       8.17
C      10.37      -0.51       9.32
C      11.19       0.53       9.78
C       8.81      -1.51       7.65
C      11.96       0.32      11.05
C       9.62       0.87       7.47
C      11.27       1.71       9.05
C      10.48       1.89       7.90
