144

Cd       7.41       1.34      10.77
Cd       5.37       0.00       0.00
Cd       2.04      10.70       1.77
Cd       0.00       0.00       0.00
H      -0.34       1.92       5.33
H      -0.38       0.84       9.51
H       4.69       8.44       8.47
H       4.46       2.58      11.31
H       6.78       5.10       1.40
H       0.36      10.84       8.75
H       2.63      10.06       4.82
H       3.86       9.31      10.67
H      -0.16       7.03       0.99
H      -0.68       8.13       8.78
H       5.60       2.73       1.87
H       9.23      10.28       9.73
H       5.73       8.31      11.18
H       9.62       5.01      11.55
H       4.99       9.46       1.22
H       9.10       1.20       3.78
H       9.21       4.94       1.16
H       2.67       6.94      11.14
H       5.03       5.25       2.14
H       5.62      11.09       7.55
H       4.43       6.79      10.40
H       6.83       1.98       7.72
H       3.33       8.76       6.42
H       3.83       0.96       4.99
H      10.14       3.92       3.76
H       6.13       3.29       6.11
H       8.70       6.07       9.01
H       3.73       3.73       1.35
H       9.80      10.12       7.20
H       1.45       7.63       2.29
H       7.76      11.06       3.05
H       4.25      11.33       5.47
H       8.00       4.41      10.25
H       1.41       1.19       5.16
H       0.25       7.10      11.38
H       1.69       0.98       9.48
H       8.05      10.85       7.38
H       4.77       3.60       4.06
H       5.21       0.71       7.07
H       2.39       2.61      11.18
H       7.07       9.43       1.36
H       0.23       1.76       2.81
H       0.75       5.97       3.53
H       9.84      11.20       3.03
C       7.72       2.23       5.10
C       4.13       0.84       7.12
C       5.32      11.20       5.41
C       1.28      10.27       8.68
C       3.13       6.24       2.19
C       5.08      11.43       2.94
C       7.47      10.92       6.46
C       9.89       1.75       6.27
C       0.71       6.12      11.32
C       7.96       1.49       1.37
C       8.11      10.89       5.20
C       2.13       0.99       8.49
C       4.52       6.20       2.00
C       6.87      10.73      10.99
C       1.95       3.60      11.21
C       8.34       7.00       9.42
C       7.43       1.98       2.69
C       6.65       8.26      10.61
C       9.76       9.57       0.99
C       0.56       3.70      11.38
C       6.72       7.28       1.44
C      -0.43      10.30       6.26
C      -0.43      10.86       3.94
C       8.17       1.77       3.86
C       6.09      11.06       6.56
C       1.98       1.12       6.08
C       6.19       2.63       2.77
C       3.73       8.95       8.53
C       2.35       5.01       2.43
C       1.12       5.04       3.11
C       9.10       8.17       9.28
C       2.10       6.02      11.18
C       4.52       8.53       1.52
C       2.97       9.14       7.38
C       3.36       0.98       5.97
C       6.94       4.54      10.42
C       5.73       3.09       4.00
C       2.52       7.50       2.12
C       0.95      10.10       6.21
C       9.89       1.18       8.59
C       3.52       0.82       8.38
C       5.25       7.34       1.65
C       1.56      10.23       4.96
C       2.80       3.78       1.92
C       1.34       1.15       7.33
C       7.89       1.82       7.58
C       4.38       0.61       9.60
C       1.49      10.55      11.17
C       8.63       9.38       9.80
C       5.94      11.22       4.15
C       2.02      10.07       9.84
C       7.11       7.03      10.11
C       8.50       1.94       6.32
C       2.59       1.31       1.55
C       8.89       8.34       1.16
C       9.51       7.08       1.12
C       1.74       9.82       7.43
C       4.21       4.70      10.89
C       4.94       5.85      10.54
C      -0.13       1.35       7.40
C       0.36       3.88       3.25
C       3.26       9.41       9.76
C       6.32       5.80      10.34
C       7.36       6.02       1.36
C       7.40       9.43      10.45
C       9.58      10.69       5.13
C       2.06       2.61       2.08
C       0.82       2.66       2.74
C       6.49       2.91       5.16
C      -0.05       4.96      11.41
C       7.32      11.06       4.05
C       4.94       3.51      11.01
C      -0.30       2.48      11.54
C       2.74       4.76      11.10
C       7.51       8.44       1.32
C       8.74       5.93       1.22
N       0.89      10.60       3.86
N       3.20       8.61       1.79
N       8.57       1.44       8.68
N       6.26       3.43      10.75
O       7.67      11.75      10.94
O       5.68      11.59       1.82
O       9.15       1.08       1.34
O       3.82      11.43       3.11
O       0.27       9.39       0.99
O       9.15      10.69       0.88
O       9.19       2.65      11.55
O       3.77       1.29       1.13
O       3.77       0.45      10.72
O       5.68      10.75      11.40
O       5.63       0.61       9.42
O       1.79       0.29       1.60
O       0.31      10.96      11.20
O       2.29      10.46      12.18
O       7.16       1.59       0.35
O       0.30       1.35      11.65
