11

C       4.67      18.02      21.74
O       4.13      15.24      22.80
C       3.40      18.02      19.88
Ni       4.04      15.20      20.81
P       3.29      15.17      24.04
P       4.79      15.17      17.58
C       3.57      12.35      21.84
N       4.04      13.04      20.81
N       4.04      17.32      20.81
C       4.51      12.35      19.78
O       3.95      15.24      18.81
