57

Ni       0.00      11.41       0.00
O      -3.91       8.64       2.71
O      -1.82       8.01       4.04
O       2.69       6.62       1.11
O       2.38       6.67      -1.44
O       0.44       7.89      -0.08
O      -1.65       8.35       1.24
O      -1.71       8.49      -1.26
Mo      -3.25      10.02       1.37
Mo       1.67       8.53      -1.85
O      -2.03      10.87       0.05
O       0.50      10.13      -1.63
Mo      -0.52       9.21      -3.07
Mo      -3.35      10.12      -1.23
O       0.63      10.03       1.59
Mo       1.81       8.43       1.67
Mo      -0.30       9.05       3.05
O      -1.81      10.49       2.82
O      -4.21       8.95       0.07
O       0.57       7.35       2.71
O       2.70       9.14      -0.12
O       0.37       7.50      -2.88
O      -2.01      10.65      -2.73
Mo       3.25      12.80      -1.37
Mo      -1.67      14.29       1.85
Mo      -1.81      14.39      -1.67
Mo       0.52      13.61       3.07
Mo       0.30      13.77      -3.05
Mo       3.35      12.70       1.23
P      -3.54       7.83      -3.64
P      -3.29       7.65       3.70
P       3.01       5.96      -0.24
P      -1.09       7.75      -0.06
P       3.54      14.99       3.64
P       3.29      15.17      -3.70
P      -3.01      16.86       0.24
P       1.09      15.07       0.06
O       4.12      13.97       2.65
O       2.06      14.71       3.96
O       3.91      14.18      -2.71
O       1.82      14.81      -4.04
O      -2.69      16.19      -1.11
O      -2.38      16.15       1.44
O      -0.44      14.93       0.08
O       1.65      14.47      -1.24
O       1.71      14.33       1.26
O       1.81      12.33      -2.82
O       2.03      11.95      -0.05
O       4.21      13.87      -0.07
O      -0.50      12.69       1.63
O      -2.70      13.68       0.12
O      -0.37      15.32       2.88
O      -0.63      12.79      -1.59
O      -0.57      15.46      -2.71
O       2.01      12.17       2.73
O      -4.12       8.85      -2.65
O      -2.06       8.10      -3.96
