63

O      12.56      17.00      13.37
O      10.77      16.19      14.98
O      10.46      16.15      12.43
Ni       8.08      11.41      13.87
O       8.52      14.93      13.80
O       6.43      14.47      15.12
O       6.37      14.33      12.61
O       6.72      16.59      13.71
O       6.27      12.33      16.69
O       6.05      11.95      13.92
O       3.87      13.87      13.94
O       8.58      12.69      12.24
O      10.77      13.68      13.76
O       8.45      15.32      11.00
O       8.71      12.79      15.47
O       8.65      15.46      16.58
O       6.07      12.17      11.14
Mo      11.33      10.02      12.50
Mo       6.41       8.53      15.73
Mo       6.27       8.43      12.20
Mo       8.60       9.21      16.94
Mo       8.38       9.05      10.82
Mo      11.43      10.12      15.10
O      12.20       8.85      16.53
O      10.13       8.10      17.83
O      11.99       8.64      11.16
O       9.90       8.01       9.84
O       3.59       5.82      14.38
O       5.39       6.62      12.76
O       5.70       6.67      15.32
O       5.73       4.52      14.06
O      10.42      18.30      13.68
O       9.73       8.35      12.63
O       9.79       8.49      15.13
O       7.64       7.89      13.95
O       9.89      10.49      11.05
O      10.11      10.87      13.82
O      12.29       8.95      13.81
O       7.58      10.13      15.51
O       5.38       9.14      13.99
Mo       4.83      12.80      15.25
O       7.45      10.03      12.28
Mo       9.75      14.29      12.02
Mo       7.56      13.61      10.80
Mo       7.78      13.77      16.92
Mo       4.73      12.70      12.65
Mo       9.89      14.39      15.54
O      10.09      10.65      16.61
O       7.71       7.50      16.75
O       7.51       7.35      11.17
O       9.43       6.23      14.04
P      11.62       7.83      17.52
P      11.37       7.65      10.17
P       5.07       5.96      14.11
P       9.16       7.75      13.93
P       4.54      14.99      10.23
P       4.79      15.17      17.58
P      11.08      16.86      13.64
P       6.99      15.07      13.82
O       3.96      13.97      11.22
O       6.02      14.71       9.92
O       4.17      14.18      16.59
O       6.26      14.81      17.91
