57

Ni       8.08       0.00       0.00
O      12.20      -2.56      -2.65
O      10.13      -3.31      -3.96
O      11.99      -2.77       2.71
O       9.90      -3.40       4.04
Mo       9.75       2.88       1.85
Mo       9.89       2.98      -1.67
Mo       7.56       2.20       3.07
O       5.70      -4.74      -1.44
O       5.39      -4.78       1.11
Mo       7.78       2.36      -3.05
Mo       4.73       1.29       1.23
O       9.79      -2.92      -1.26
O       7.64      -3.52      -0.08
O       9.89      -0.92       2.82
O      10.11      -0.54       0.05
O      12.29      -2.46       0.07
O       7.58      -1.28      -1.63
O       9.73      -3.06       1.24
O       7.71      -3.91      -2.88
O       7.45      -1.38       1.59
O       7.51      -4.05       2.71
O      10.09      -0.76      -2.73
O       5.38      -2.27      -0.12
O       3.96       2.56       2.65
Mo      11.33      -1.39       1.37
Mo       6.41      -2.88      -1.85
Mo       6.27      -2.98       1.67
Mo       8.60      -2.20      -3.07
Mo       8.38      -2.36       3.05
Mo      11.43      -1.29      -1.23
O       6.02       3.31       3.96
O       4.17       2.77      -2.71
O      10.46       4.74       1.44
O      10.77       4.78      -1.11
O       8.52       3.52       0.08
O       6.43       3.06      -1.24
O       6.37       2.92       1.26
O       6.26       3.40      -4.04
O       6.27       0.92      -2.82
O       6.05       0.54      -0.05
O       3.87       2.46      -0.07
O       8.58       1.28       1.63
O      10.77       2.27       0.12
O       8.45       3.91       2.88
O       8.71       1.38      -1.59
O       8.65       4.05      -2.71
O       6.07       0.76       2.73
P       4.54       3.58       3.64
P       4.79       3.76      -3.70
P      11.08       5.45       0.24
P       6.99       3.66       0.06
P      11.62      -3.58      -3.64
P      11.37      -3.76       3.70
P       5.07      -5.45      -0.24
P       9.16      -3.66      -0.06
Mo       4.83       1.39      -1.37
