11

P      11.62       7.83      17.52
Ni      12.12       7.80      20.81
C      12.95       4.99      20.05
N      12.12       5.69      20.81
C      12.73      10.66      21.77
P      12.62       7.83      24.10
C      11.29       4.99      21.57
N      12.12       9.96      20.81
O      12.44       7.77      18.77
C      11.50      10.66      19.85
O      11.79       7.77      22.84
