108

Co       5.35       1.49      11.81
Co       4.92       3.42      14.37
Co       0.52       8.35       4.88
Co       0.95       6.42       2.32
H       4.63       7.15      12.40
H       4.35       8.74       8.43
H       4.69       4.46       9.04
H       3.95       8.10       6.43
H       4.47       6.80       5.30
H      -0.91      -0.11       6.84
H       7.22       6.37       5.28
H       0.50       3.19      14.15
H       1.44       9.56      13.21
H      -2.23      -0.09      13.66
H      -2.02       6.70      13.21
H      -2.91       8.27      13.23
H       0.20       9.21       1.25
H      -1.76       5.48      15.50
H       1.24       2.68       4.29
H       1.52       1.09       8.26
H       1.18       5.37       7.65
H       1.92       1.74      10.26
H       1.40       3.04      11.39
H       6.78       9.95       9.85
H      -1.35       3.47      11.41
H       5.37       6.64       2.54
H       4.42       0.28       3.48
H       8.10       9.93       3.03
H       7.89       3.13       3.48
H       8.77       1.57       3.46
H       5.67       0.63      15.44
H       7.63       4.35       1.19
C       4.66       5.69      10.82
C       4.59       6.98      11.33
C       4.47       8.07      10.46
C       4.42       7.87       9.07
C       4.51       6.56       8.57
C       4.62       5.47       9.44
C       4.85       4.52      11.73
C       4.53       9.45      11.00
C       4.66       7.27       6.27
C       7.53       9.29       6.53
C       7.15       7.34       5.74
C      -0.98       1.63      13.91
C       0.32       2.14      13.95
C       1.39       1.28      13.66
C       1.17      -0.09      13.44
C      -0.69       9.69      13.52
C      -1.21       0.26      13.69
C      -2.16       2.52      14.05
C       2.77       1.83      13.51
C      -2.06       7.70      13.65
C       0.45       8.61       0.38
C      -2.04       6.47      15.87
C       1.21       4.15       5.87
C       1.28       2.85       5.36
C       1.40       1.77       6.23
C       1.45       1.97       7.62
C       1.36       3.27       8.12
C       1.25       4.36       7.26
C       1.02       5.31       4.96
C       1.34       0.38       5.69
C       1.21       2.56      10.42
C      -1.66       0.55      10.15
C      -1.28       2.49      10.95
C       6.85       8.21       2.78
C       5.55       7.70       2.74
C       4.48       8.56       3.03
C       4.70       9.92       3.25
C       6.56       0.14       3.17
C       7.08       9.58       3.00
C       8.03       7.32       2.64
C       3.10       8.01       3.18
C       7.93       2.13       3.04
C       5.42       1.23      16.31
C       7.91       3.37       0.82
N       6.00       7.86       6.25
N       6.23       9.11       6.76
N      -1.38       8.23       5.90
N      -2.27       7.54      15.08
N      -2.65       8.62      15.84
N       0.80       7.27       0.45
N      -0.13       1.98      10.44
N      -0.36       0.73       9.93
N       7.26       1.61      10.79
N       8.14       2.29       1.61
N       8.52       1.22       0.85
N       5.07       2.56      16.24
O       4.88       3.36      11.20
O       4.99       4.79      12.98
O       5.01       9.64      12.18
O       4.76       0.16      10.28
O       4.53       6.23       7.22
O       6.21       2.03      13.65
O      -2.12       3.66      14.57
O       3.03       2.93      14.11
O       3.56       1.16      12.78
O      -0.81       8.32      13.37
O       1.00       6.47       5.49
O       0.88       5.05       3.71
O       0.86       0.20       4.51
O       1.11       9.68       6.41
O       1.34       3.61       9.47
O      -0.34       7.80       3.04
O       7.99       6.17       2.12
O       2.84       6.90       2.58
O       2.31       8.67       3.91
O       6.67       1.52       3.32
