64

V       1.64       5.84      12.46
V       2.27       3.34      11.26
V       0.32       3.54       0.27
V      -0.28       6.06       1.45
Ni       2.85       5.62       0.02
Ni       0.02       0.02       0.01
H      -4.19       8.04      10.68
H      -3.49       8.50       8.35
H       3.88       0.71       8.39
H       3.29       0.14      10.71
H       5.06       0.31       6.41
H       2.84       7.07       2.64
H       3.63       6.64       4.95
H       5.47       3.01       3.47
H       4.50       3.54       1.25
H      -2.03       3.55       5.79
H       6.18       1.33       2.05
H       5.42       0.83       4.35
H      -1.95       8.61       4.30
H      -1.31       9.23       2.01
H      -3.12       9.01       6.28
H      -0.84       2.28      10.09
H      -1.67       2.68       7.79
H      -3.51       6.31       9.26
H      -2.50       5.81      11.48
H       3.99       5.77       6.95
C      -4.58       8.90      10.13
C      -4.21       9.16       8.82
C       5.24      -0.96       8.13
C       4.33      -0.16       8.86
C       4.00      -0.48      10.16
C       5.55      -0.60       6.77
C       3.39       6.15       2.90
C       3.83       5.91       4.18
C       4.58       4.74       4.45
C       4.84       3.89       3.36
C       4.33       4.19       2.11
C       5.07       4.37       5.78
C       6.56       0.47       2.60
C       6.16       0.18       3.88
C      -3.29      10.29       4.57
C      -2.38       9.49       3.84
C      -2.02       9.85       2.56
C      -3.61       9.93       5.93
C      -1.40       3.19       9.83
C      -1.86       3.43       8.55
C      -2.61       4.59       8.28
C      -2.87       5.44       9.37
C      -2.34       5.16      10.62
C      -3.11       4.95       6.95
N       4.53      -1.54      10.82
N       3.60       5.30       1.87
N      -2.53      10.92       1.91
N      -1.60       4.06      10.85
O       0.80       2.81      11.82
O      -0.01       5.64      12.58
O      -1.71       7.12       1.34
O       1.99       7.47      12.32
O       2.20       5.07      10.89
O       1.19       6.56       0.89
O       1.96       3.77       0.12
O       3.64       2.23      11.41
O       0.00       1.90       0.39
O      -0.24       4.33       1.84
