70

Cu      18.12       6.10      10.28
Cu       2.62      12.65       0.35
Cu       3.92       9.33       5.33
Cu       7.14       6.68       0.00
H      17.74      10.15       8.08
H      13.97      10.06       6.17
H      16.59      11.13      10.16
H       2.98       8.55       2.57
H       6.75       8.65       4.47
H       4.13       7.58       0.49
W      15.20       6.33       5.64
W      18.57      13.89       8.23
W      16.77      16.68       7.81
W      17.71       6.27       7.82
W      13.22       1.80       2.95
W      15.89      14.40       6.34
W       5.51      12.41       5.04
W       2.29       4.70       2.57
W       4.02       2.17       2.93
W       2.99      12.46       2.82
W       7.54      16.92       7.63
W       4.76       4.17       4.35
C      16.66      10.34       8.12
C      14.59      10.31       7.03
C      13.98      10.88       8.15
C      16.04      10.87       9.25
C      12.48      11.26       8.22
C       4.06       8.37       2.52
C       6.13       8.40       3.61
C       6.74       7.83       2.50
C       4.68       7.83       1.40
C       8.24       7.45       2.43
N      15.93      10.07       7.01
N      14.73      11.14       9.24
N       4.79       8.66       3.62
N       5.99       7.56       1.40
O      15.14       8.02       5.18
O      14.73       4.72       6.78
O      16.95      13.30       7.73
O      14.92      15.16       4.98
O      15.25      15.54       7.86
O      17.80      15.39       9.02
O       4.12       5.80       5.44
O       7.16      15.08       7.81
O      14.32      12.89       3.65
O      17.29       4.37       7.91
O      17.44      15.47       6.42
O      16.00       6.90       7.48
O      14.38       5.62       4.15
O      12.29       1.47       1.55
O      12.12      11.84       9.33
O      11.76      11.01       7.26
O      12.63      12.50       0.22
O       5.61      10.73       5.45
O       5.95      14.01       3.85
O       3.89       5.52       2.75
O       5.90       3.49       5.62
O       5.57       3.22       2.78
O       2.94       3.19       1.60
O      16.56      12.89       5.14
O      13.48       3.60       2.88
O       6.39       5.78       7.07
O       3.41      14.34       2.75
O       3.02       3.33       4.15
O       4.68      11.78       3.10
O       6.31      13.13       6.60
O       8.41      17.16       9.10
O       8.60       6.87       1.31
O       8.96       7.70       3.38
O       8.09       6.23      10.43
