28

H      11.26      23.24      14.65
H      12.27      22.05      15.46
H       6.89      18.40      14.64
H       5.94      19.66      15.43
N       9.63      21.24      19.22
N       8.56      20.34      19.23
C       8.04      19.95      15.57
C      10.18      21.66      15.58
C      11.33      22.62      15.55
C       6.84      19.03      15.54
H      11.26      23.24      19.00
H      12.27      22.05      18.18
H       6.89      18.40      19.00
H       5.94      19.66      18.22
N       9.63      21.24      14.43
N       8.56      20.34      14.42
H      10.47      24.14      16.82
H      12.23      24.13      16.82
H       7.54      17.43      16.82
H       5.79      17.63      16.82
C       8.04      19.95      18.08
C      10.18      21.66      18.07
C      11.33      22.62      18.10
C       6.84      19.03      18.10
C       8.56      20.36      16.82
C       9.67      21.23      16.82
C      11.35      23.48      16.82
C       6.74      18.18      16.82
