28

H      16.67       6.11       2.81
H      17.16       7.09       1.43
N      12.23       7.58       4.42
N      13.00       7.34       3.28
H      10.92       8.55       6.44
H      11.81       7.31       7.33
H      14.65       6.59       1.47
H      15.02       8.31       1.45
C      14.96       8.06       4.48
C      14.17       8.26       5.64
C      12.55       9.33       7.67
C      16.58       7.11       2.37
C      14.30       7.60       3.32
C      12.78       8.01       5.56
C      11.92       8.26       6.77
C      15.10       7.40       2.06
H      14.47       9.81       8.61
H      14.03       8.10       8.68
H      18.21       7.85       3.65
H      17.29       9.12       2.84
C      16.34       8.32       4.57
C      14.82       8.74       6.81
C      14.00       9.00       8.04
C      17.20       8.14       3.34
N      16.13       8.97       6.82
N      16.93       8.73       5.69
H      12.53      10.30       7.14
H      11.95       9.46       8.58
