28

C      14.96      21.23      12.08
C      14.17      20.12      12.49
C      12.55      17.83      12.57
C      16.58      23.53      11.85
H      10.92      19.29      12.64
H      11.81      19.14      14.15
H      14.65      24.57      11.85
H      15.02      23.73      10.35
N      16.13      18.75      12.46
N      16.93      19.85      12.11
C      14.30      22.47      11.90
C      12.78      20.32      12.66
C      11.92      19.15      13.06
C      15.10      23.66      11.44
H      14.47      16.77      12.64
H      14.03      17.57      14.15
H      18.21      22.06      11.85
H      17.29      22.12      10.35
N      12.23      21.52      12.47
N      13.00      22.63      12.11
H      12.53      17.81      11.48
H      11.95      16.98      12.92
C      14.00      17.68      13.05
C      14.82      18.88      12.66
C      16.34      21.02      11.90
C      17.20      22.18      11.44
H      16.67      23.66      12.94
H      17.16      24.35      11.40
