28

N       9.88      23.82      12.40
N       9.40      24.47      13.54
C       9.42      26.55      12.34
C       9.87      25.88      11.18
C      11.42      24.71       9.15
C       7.99      27.77      14.46
H      11.23      22.91      10.38
H       9.76      23.34       9.50
H       8.14      25.78      15.36
H       9.65      26.69      15.38
H      11.23      26.68       8.21
H       9.76      25.69       8.14
H       8.14      29.55      13.18
H       9.65      29.11      13.98
C       9.21      25.78      13.51
C      10.11      24.49      11.26
C      10.62      23.76      10.05
C       8.75      26.47      14.77
C       9.21      27.95      12.25
C      10.11      26.65      10.02
C      10.62      25.97       8.78
C       8.75      28.69      13.49
N       9.88      27.97      10.01
N       9.40      28.63      11.14
H      12.34      25.02       9.68
H      11.74      24.19       8.24
H       7.01      27.52      14.02
H       7.78      28.31      15.39
