86

O       9.86       2.61      18.50
H      11.43       2.32      14.87
H      13.20       3.86      13.97
O       9.86      13.54       9.53
H      11.43      13.83      13.16
H      13.20      12.28      14.06
H      22.17      11.69       9.45
H      20.39      10.13      10.34
H      22.17       4.46      18.58
H      20.39       6.01      17.69
H      22.17      13.83      13.16
H      20.40      12.28      14.06
H      22.17       2.32      14.87
H      20.40       3.86      13.97
H      11.43       4.46      18.58
H      13.20       6.01      17.69
H      11.43      11.69       9.45
H      13.20      10.13      10.34
H      15.44       3.63      16.59
H      11.71       6.90      14.70
H      15.44      12.52      11.45
H      11.71       9.25      13.33
H      18.16      12.52      11.45
H      21.89       9.25      13.33
H      18.16       3.63      16.59
H      21.89       6.90      14.70
H      15.74       8.07      14.02
H      17.86       8.07      14.02
C      11.82       3.14      15.47
C      12.80       3.99      14.98
C      11.82      13.01      12.56
C      12.80      12.15      13.06
C      21.77      11.80      10.46
C      20.79      10.94      10.95
C      21.77       4.35      17.57
C      20.79       5.21      17.08
C      21.78      13.01      12.56
C      20.79      12.15      13.06
C      21.78       3.14      15.47
C      20.79       3.99      14.98
C      11.82       4.35      17.57
C      12.81       5.21      17.08
C      11.82      11.80      10.46
C      12.81      10.94      10.95
C      13.92       7.10      14.58
C      14.37       5.94      15.25
C      10.26       2.38      17.31
C      15.71       5.57      15.46
C      11.32       3.31      16.77
C      13.30       5.03      15.78
C      16.12       4.36      16.16
C      12.56       7.48      14.36
C      13.92       9.05      13.45
C      14.37      10.21      12.78
C      10.26      13.77      10.72
C      15.71      10.57      12.57
C      11.32      12.84      11.26
C      13.30      11.11      12.26
C      16.12      11.78      11.87
C      12.56       8.67      13.67
C      19.67       9.05      13.45
C      19.23      10.21      12.78
C      23.34      13.77      10.72
C      17.89      10.57      12.57
C      22.27      12.84      11.26
C      20.29      11.11      12.26
C      17.48      11.78      11.87
C      21.04       8.67      13.67
C      19.67       7.10      14.58
C      19.23       5.94      15.25
C      23.34       2.38      17.31
C      17.89       5.57      15.46
C      22.27       3.31      16.77
C      20.29       5.03      15.78
C      17.48       4.36      16.16
C      21.04       7.48      14.36
N      14.71       8.07      14.02
N      18.88       8.07      14.02
N      16.80       6.30      15.04
N      16.80       9.84      12.99
O       9.86       1.46      16.52
O       9.86      14.68      11.51
O      23.74      13.54       9.53
O      23.74       2.61      18.50
O      23.74      14.68      11.51
O      23.74       1.46      16.52
