46

C       0.50       8.06      45.84
N      -6.40      11.47      47.71
C      -3.26      15.13      52.00
C      -5.08      13.84      50.83
C      -4.22      13.02      50.11
H      -2.20      11.03      48.64
C       2.72       7.60      46.92
C       0.86       8.65      48.13
H      -5.38      15.43      55.05
C      -0.77       8.54      45.91
H      -0.80       9.46      49.02
H      -6.23      14.40      53.16
C      -6.95      13.21      49.43
H      -3.56       8.57      45.71
H      -1.87      16.12      53.14
H      -5.70       9.44      45.87
C      -4.18      11.25      48.19
H       0.82       7.69      45.03
C      -6.42      13.95      50.47
H      -2.72      15.05      51.22
H      -3.30      12.98      50.33
H       1.42       8.71      48.90
H      -1.31       8.51      45.13
C      -3.06      16.66      55.47
O       3.14       7.08      45.84
C      -5.24      10.77      47.38
O       3.40       7.71      47.97
H      -7.87      13.29      49.19
O      -3.85      16.90      56.38
O      -1.83      16.95      55.46
H      -6.98      14.55      50.94
C      -4.72      12.25      49.06
C      -2.90      10.71      48.08
C      -3.56      15.94      54.26
C      -4.85      15.38      54.26
C      -4.55      14.60      52.00
C      -1.30       9.09      47.08
C      -0.46       9.12      48.20
C      -2.64       9.70      47.17
C      -5.34      14.74      53.15
C       1.34       8.09      46.97
C      -6.11      12.34      48.72
C      -3.73       9.26      46.35
C      -2.76      15.78      53.14
C      -5.00       9.76      46.43
H      -7.19      11.36      47.32
