46

C       9.94      13.41      19.60
C      12.17      10.72      21.88
C       8.81       8.01      26.88
C      10.99      13.89      18.79
O       2.61      17.59      17.25
O       2.35      16.96      19.38
H      12.94      13.31      18.73
O       9.60       7.77      27.79
O       7.58       7.72      26.87
C      10.48      12.41      20.47
C       8.65      13.96      19.49
H       7.95      13.64      20.05
H      11.14       9.24      26.46
C       9.31       8.72      25.67
H       6.55      15.20      20.43
C      10.60       9.29      25.67
H      11.98      10.27      24.57
C      10.30      10.07      23.41
C       7.05      15.57      18.49
C       6.21      15.55      19.61
C       8.39      14.97      18.58
C      11.09       9.93      24.56
H       9.31      16.09      17.12
H       7.62       8.55      24.55
H      11.45      15.22      17.27
H       4.93      16.98      16.44
C       4.41      16.57      18.38
C      11.86      12.33      20.13
C       9.48      15.41      17.76
H       9.05      11.68      21.74
H       8.47       9.62      22.63
C       8.51       8.89      24.55
H       7.07      16.16      16.54
H       4.33      15.95      20.31
C      10.75      14.91      17.84
H      13.62      11.38      20.60
C       5.25      16.61      17.25
C       9.01       9.54      23.41
C      10.83      10.83      22.24
C       9.97      11.65      21.52
H      12.73      10.11      22.35
C       3.03      17.07      18.32
C       4.89      16.02      19.54
C       6.52      16.12      17.31
N      12.15      13.20      19.11
C      12.70      11.46      20.84
