46

H       8.55       7.69      40.74
H       5.02      15.05      34.55
H       4.44      12.98      35.44
N       1.33      11.47      38.07
C       1.63      12.34      37.05
C       4.01       9.26      39.42
H       6.42       8.51      40.64
C       9.08       8.09      38.80
H       9.16       8.71      36.88
C       4.98      15.78      32.64
C       2.73       9.76      39.34
H      -0.13      13.29      36.58
C       8.23       8.06      39.93
C       4.48      15.13      33.77
H       0.76      14.55      34.83
C       2.66      13.84      34.94
C       3.52      13.02      35.66
C      10.46       7.60      38.86
C       8.59       8.65      37.64
C       6.97       8.54      39.87
C       0.78      13.21      36.35
C       3.55      11.25      37.58
C       1.32      13.95      35.31
C       4.68      16.66      30.30
O      10.88       7.08      39.93
O      11.14       7.71      37.80
C       2.50      10.77      38.39
H       0.55      11.36      38.45
O       3.89      16.90      29.39
O       5.91      16.95      30.31
C       3.01      12.25      36.71
C       4.84      10.71      37.69
H       5.54      11.03      37.13
H       2.35      15.43      30.72
H       6.94       9.46      36.75
H       1.51      14.40      32.61
C       4.18      15.94      31.51
C       2.89      15.38      31.51
C       3.19      14.60      33.77
C       6.44       9.09      38.69
C       7.27       9.12      37.57
H       4.18       8.57      40.06
C       5.09       9.70      38.60
H       5.87      16.12      32.63
C       2.40      14.74      32.62
H       2.04       9.44      39.91
