46

C       3.87       1.45       8.80
C       4.31       2.77       8.45
C       4.85       2.75      12.02
C       3.74       2.33       6.19
C       4.15       0.46      12.46
C       3.88       0.27      11.11
C       4.21       3.21       7.15
N       4.70       3.44       9.60
C       4.07      -1.99      12.97
C       3.91      -0.66      13.40
C       3.16      -1.50      15.54
O       0.48      -2.60       1.94
O       1.71      -4.13       3.02
C       1.88      -1.90       3.71
C       4.58       2.54      10.67
C       3.43      -0.43      14.68
C       4.66       1.69      12.88
O       2.67      -3.67      17.22
H       4.97       4.27       9.66
O       3.06      -5.10      15.53
C       1.43      -0.57       3.63
C       1.31      -2.97       2.84
H       0.79      -0.32       2.97
C       3.34       1.02       6.50
H       1.59       1.27       4.49
H       3.21      -0.31       8.02
H       4.09      -1.46       6.11
H       3.91      -3.94      13.49
H       3.26      -3.12       4.66
H       5.15       3.59      12.33
H       3.68       2.62       5.29
H       3.57      -0.57      10.80
H       4.45       4.10       6.91
H       4.37      -2.15      12.08
C       4.07       1.34      10.20
C       3.32      -2.80      15.12
H       2.87      -1.33      16.43
C       2.98      -3.94      16.01
C       2.89       0.02       5.46
H       3.27       0.46      14.98
H       4.88       1.80      13.80
C       1.92       0.37       4.52
C       3.44       0.59       7.80
C       3.39      -1.25       5.49
C       3.79      -3.05      13.79
C       2.91      -2.23       4.63
