46

C       3.82       1.07      20.72
C      11.34      -5.33      17.90
C       5.73      -0.86      20.16
C       5.01       4.39      23.22
O      14.61      -4.81      19.30
O      13.82      -6.49      18.04
C       4.86       3.45      22.23
C      11.92      -3.89      19.68
H       3.59      -2.39      18.47
C      10.03      -4.93      17.97
O       6.44       4.73      26.58
C       6.48      -2.02      19.64
O       5.55       6.28      25.24
C       8.18      -3.58      19.04
H       6.28       0.92      23.71
C       9.61      -4.02      18.99
C       5.31       2.16      22.40
C       5.96       1.81      23.58
H       2.63       0.02      19.43
H       6.61       2.50      25.35
H       5.24      -4.48      17.84
C       5.53      -2.74      18.89
H       7.44      -5.19      18.01
H       8.42      -1.93      20.22
C       3.48       0.05      19.84
H       6.88       0.21      21.47
C       4.42      -0.94      19.59
C       6.15       2.74      24.56
C       5.90       5.11      25.45
H      10.39      -2.79      20.41
C       5.89      -3.95      18.30
H       3.19       1.76      20.89
C       5.68       4.06      24.39
C       6.03       0.17      21.06
C       7.19      -4.36      18.40
C      12.30      -4.87      18.78
C       7.78      -2.43      19.71
C      13.68      -5.42      18.72
H      11.59      -5.95      17.23
H       4.67       5.27      23.10
H      12.57      -3.48      20.24
C       5.09       1.11      21.36
H       4.43       3.70      21.41
H       9.40      -5.25      17.34
N       4.32      -2.10      18.88
C      10.61      -3.47      19.78
