46

C       3.77       2.33      28.78
C      -4.42       4.66      29.64
C       2.83       1.74      27.90
C      -0.34       3.46      29.03
C       1.09       3.07      28.88
C       4.91       0.80      27.54
O      -4.65       5.90      29.73
O      -5.30       3.75      29.72
C       2.07       3.70      29.70
O       1.84      -3.78      20.14
C       3.56       0.79      27.09
C       3.20       0.00      25.99
C      -2.00       5.20      29.36
H       5.74       1.95      29.01
C      -2.67       2.90      29.29
C      -3.01       4.25      29.43
C      -0.70       4.82      29.15
O       3.14      -5.37      20.99
C       1.48       2.09      27.98
C       3.81      -1.67      24.25
C       5.87      -0.02      27.02
H       1.80       4.39      30.29
H       2.32       0.02      25.65
C       3.05      -3.32      22.11
H       0.84       1.67      27.41
H       6.75      -0.04      27.36
C       4.18      -0.82      25.41
H      -0.02       5.49      29.09
H      -2.22       6.12      29.45
H      -3.35       2.23      29.35
H      -1.16       1.60      28.96
C      -1.37       2.52      29.08
H       4.92      -3.31      24.81
H       6.13      -1.39      25.55
C       4.32      -2.98      24.15
C       5.48      -0.82      25.94
H       4.04       3.79      30.20
C       2.67      -4.20      21.00
H       1.99      -1.66      21.55
H       2.60      -0.33      23.33
H       4.28      -4.67      23.06
C       3.40       3.35      29.66
C       2.58      -2.01      22.22
C       2.95      -1.21      23.27
C       3.94      -3.78      23.11
N       5.01       1.75      28.57
