46

C       3.80       3.78      51.70
H       5.94      -4.39      58.89
H       5.42      -0.02      54.24
H       9.95      -6.12      58.04
H      11.08      -2.23      57.94
H       7.76      -5.49      57.68
H       6.90      -1.67      56.00
H       0.99       0.04      55.95
H       8.90      -1.60      57.55
H       2.81       3.31      53.40
H       1.61       1.39      54.14
H       3.70      -3.79      58.79
C       3.97      -2.33      57.37
C      12.16      -4.66      58.23
H       5.74       1.66      50.14
H       5.14       0.33      51.92
C       4.91      -1.74      56.49
C       8.07      -3.46      57.62
H       3.46       4.67      51.65
C       6.65      -3.07      57.47
C       2.83      -0.80      56.13
O      12.38      -5.90      58.32
O       5.89       3.78      48.73
C       5.66      -3.70      58.29
O      13.04      -3.75      58.31
C       4.18      -0.79      55.68
C       4.53       0.00      54.58
C       9.74      -5.20      57.95
C      10.41      -2.90      57.88
O       4.60       5.37      49.58
C      10.75      -4.25      58.02
C       8.43      -4.82      57.74
C       6.25      -2.09      56.57
C       3.93       1.67      52.84
C       1.87       0.02      55.61
C       4.69       3.32      50.70
C       3.56       0.82      54.00
C       9.10      -2.52      57.67
C       3.42       2.98      52.75
C       2.26       0.82      54.53
C       5.07       4.20      49.59
C       4.34      -3.35      58.25
H       1.99      -1.95      57.60
C       5.16       2.01      50.81
N       2.73      -1.75      57.16
C       4.79       1.21      51.86
