46

H      10.23       4.48      39.34
N      11.15       2.10      38.30
C       9.94       2.74      38.29
H       8.04       5.19      39.17
H       7.06       1.93      36.96
H       8.59      -0.21      35.72
C       9.51      -1.81      33.60
C      11.99      -0.05      37.34
C      11.05       0.94      37.59
H       5.09       2.79      36.77
C       9.32      -2.74      32.62
H      12.28      -1.76      36.29
C       9.58      -5.11      31.73
C       9.59       3.95      38.88
C       9.80      -4.06      32.79
C       8.28       4.36      38.79
C       3.17       4.87      38.40
H       3.89       5.95      39.95
C       7.69       2.43      37.47
C       1.79       5.42      38.46
H      10.80      -5.27      34.09
H       2.90       3.48      36.94
H      11.04      -3.70      35.77
H       6.07       5.25      39.84
C      10.39      -1.11      35.82
C       9.45      -0.17      36.12
C       4.86       3.47      37.40
C      11.65      -1.07      36.47
C       4.14       5.33      39.28
C       9.75       0.86      37.02
O       0.86       4.81      37.88
O       1.65       6.49      39.14
C      10.46      -4.39      33.96
C       3.56       3.89      37.50
H      11.88       2.39      38.71
C      10.62      -3.45      34.95
O       9.03      -4.73      30.60
C       5.44       4.93      39.21
O       9.93      -6.28      31.94
C       9.00       2.02      37.54
C       7.29       3.58      38.14
H       9.20      -0.92      33.47
C       5.86       4.02      38.19
H      12.85      -0.02      37.75
C      10.17      -2.16      34.78
H       8.86      -2.50      31.83
