46

C       6.42      10.29       0.23
C       4.22      13.44       3.00
C       5.59       8.82      -1.47
C       4.75      14.12       4.20
C       5.07      12.62       2.24
N       2.93      11.10      -0.21
C       8.46       7.99      -1.85
C      10.02       7.98       0.43
C       4.44      14.97       6.45
C       8.75       8.52       0.47
C       6.28      16.15       7.69
C       6.07      14.58       4.26
C       6.58      15.21       5.37
C       3.23      12.00       0.82
H       2.15      11.00      -0.61
H      10.07       7.05      -2.68
H       3.60       9.04      -1.99
H       7.13      10.62       0.77
H       5.76       8.12      -2.10
H       5.99      12.58       2.46
H       7.92       7.99      -2.63
H      10.55       7.97       1.21
C       2.90      13.58       2.57
H       3.88      15.09       7.20
H       8.40       8.87       1.28
H       6.63      14.45       3.51
H       7.48      15.49       5.39
C       3.95      14.35       5.32
C       2.37      12.87       1.47
O      12.34       6.38      -1.85
C      11.93       6.90      -0.77
C       4.11      10.40      -0.50
C      10.53       7.44      -0.75
C       9.74       7.43      -1.88
H       2.33      14.19       3.03
C       5.14      10.86       0.32
C       4.30       9.36      -1.43
O       7.49      16.54       7.62
O      12.61       6.99       0.32
C       6.64       9.24      -0.65
C       7.99       8.56      -0.68
H       1.47      12.98       1.20
C       5.76      15.43       6.49
H       3.04      14.08       5.30
O       5.48      16.33       8.64
C       4.59      11.88       1.20
