46

C      11.68      14.35      23.27
C      10.11      12.87      27.12
C      19.66       6.90      29.36
C      11.85      10.40      29.09
C      18.27       7.44      29.34
C      17.48       7.43      30.47
O      20.08       6.38      30.44
C      12.88      10.86      28.27
C      12.04       9.36      30.02
C      14.37       9.24      29.24
C      15.73       8.56      29.27
O      15.23      16.54      20.97
C      13.50      15.43      22.11
O      20.34       6.99      28.27
H       9.89      11.00      29.20
O      13.22      16.33      19.95
C      12.32      11.88      27.40
H      17.81       7.05      31.27
H      11.34       9.04      30.58
C      14.15      10.29      28.36
H      14.87      10.62      27.82
H      13.73      12.58      26.13
C      11.96      13.44      25.60
C      13.32       8.82      30.07
C      12.80      12.62      26.35
C      12.49      14.12      24.39
H      13.49       8.12      30.69
C      16.20       7.99      30.44
H      15.66       7.99      31.22
H      18.29       7.97      27.38
H      11.62      15.09      21.39
C      17.75       7.98      28.16
H      16.14       8.87      27.31
H      14.37      14.45      25.08
H      15.22      15.49      23.20
C      12.18      14.97      22.14
C      16.49       8.52      28.12
C      14.01      16.15      20.90
C      13.81      14.58      24.33
C      14.31      15.21      23.22
C      10.96      12.00      27.77
H      10.07      14.19      25.56
H      10.78      14.08      23.29
H       9.21      12.98      27.40
C      10.64      13.58      26.03
N      10.67      11.10      28.80
