46

H       2.85      21.18       8.35
H      -5.29      28.36       7.18
C      -1.54      21.08       9.55
H      -0.32      19.42      11.25
N      -5.40      22.57       9.71
C      -0.11      20.65       9.60
C      -4.42      26.83       6.19
C      -3.76      26.48       5.01
C      -4.19      21.92       9.70
C      -6.24      24.71       8.75
H      -6.13      22.28      10.12
C      -5.30      23.73       9.00
C      -3.57      27.41       4.03
C      -3.82      29.78       3.14
C      -3.84      20.71      10.29
C      -4.05      28.72       4.20
C      -2.53      20.31      10.20
C       2.58      19.79       9.81
C      -1.94      22.24       8.88
C       3.96      19.25       9.87
C      -4.63      25.78       7.23
C      -3.70      24.83       7.53
H      -3.45      25.59       4.88
C       0.89      21.20       8.81
C      -5.90      25.74       7.88
H      -7.10      24.69       9.16
H      -3.11      27.17       3.24
H      -4.48      20.19      10.75
H      -2.29      19.47      10.58
H      -1.31      22.74       8.37
C       1.61      19.33      10.69
H      -2.84      24.87       7.12
O       4.89      19.86       9.29
C      -3.99      23.81       8.43
C      -4.71      29.06       5.37
O       4.10      18.18      10.55
H       0.67      21.87       8.18
H      -6.53      26.43       7.70
C      -4.87      28.12       6.36
O      -3.28      29.40       2.01
C       2.19      20.78       8.91
C       0.31      19.74      10.62
O      -4.18      30.95       3.35
C      -3.25      22.65       8.95
H       1.86      18.71      11.36
H      -5.05      29.93       5.50
