29

C       8.56      10.34       5.69
S       5.09      12.15       4.73
C       7.25      10.56       5.28
C       8.91      12.73       5.96
C       5.49      11.89       2.02
C       5.73      12.39       0.74
C       9.39      11.42       6.04
C       5.58      14.67       1.59
C       7.59      12.97       5.57
H       8.95       9.33       5.73
C       6.77      11.88       5.24
H       6.59       9.74       5.02
H       9.57      13.56       6.21
C      10.79      11.16       6.49
H       5.46      10.82       2.22
H       5.89      11.71      -0.10
C       5.33      14.18       2.87
H       7.20      13.98       5.52
H       5.61      15.74       1.40
C       5.79      13.78       0.53
H       5.15      14.86       3.70
C       6.13      14.30      -0.82
O      11.58      12.15       6.55
O       6.25      13.49      -1.81
O      11.07       9.94       6.81
O       6.34      15.56      -1.00
O       4.43      10.85       4.64
C       5.30      12.79       3.07
O       4.54      13.23       5.55
