29

C       2.59       2.21      11.84
C       2.22      -0.10      11.18
C       1.75       1.10      11.75
C       7.44      -1.82      13.30
C       7.24       0.96      12.95
C       8.53      -1.47      15.54
C       4.38       0.91      10.90
S       6.10       0.75      10.48
H       4.60       2.97      11.53
H       3.91      -1.10      10.28
O      -0.11       2.35      12.60
O       8.78      -2.71      15.63
O      -0.31       0.13      12.54
O       8.79      -0.59      16.46
H       6.56      -1.98      11.33
H       8.20       1.12      14.86
H       2.20       3.13      12.27
O       6.22      -0.26       9.43
H       1.54      -0.95      11.08
O       6.65       2.10      10.30
H       7.54      -2.90      13.45
C       3.92       2.12      11.43
H       7.17       2.03      12.81
C       3.53      -0.19      10.74
C       0.39       1.20      12.31
C       7.81       0.44      14.11
C       6.79       0.07      11.97
C       6.89      -1.31      12.13
C       7.90      -0.95      14.29
