29

S      14.78       3.91       5.65
H      18.64       1.09       4.65
H      16.28       1.50       5.36
H      19.25       5.32       4.17
C      18.25       2.10       4.69
C      16.94       2.32       5.10
H      15.15       2.58       8.17
C      18.59       4.49       4.42
H      16.88       5.74       4.86
C      15.18       3.65       8.36
H      15.58       3.47      10.49
O      21.27       3.91       3.83
C      19.08       3.17       4.34
C      15.42       4.14       9.64
H      14.84       6.62       6.68
C      17.28       4.72       4.81
C      15.27       6.42       8.79
O      20.76       1.70       3.57
O      15.94       5.25      12.19
C      16.46       3.63       5.14
O      14.12       2.61       5.74
C      20.48       2.92       3.89
O      14.22       4.99       4.84
O      16.03       7.31      11.38
C      15.02       5.93       7.51
H      15.30       7.49       8.98
C      15.48       5.53       9.85
C      15.81       6.06      11.20
C      14.99       4.55       7.31
