29

C      11.30       2.79       2.42
C      15.17       1.87      -4.67
C      15.76       3.03      -1.13
C      13.51       4.29       1.57
C      15.16       1.99      -0.40
C       9.93       4.87       2.65
C      12.31       4.93       1.86
C      15.14       1.88      -3.18
C      12.50       2.14       2.13
S      15.15       2.07       1.38
O       9.03       4.19       3.24
O      15.95       2.68      -5.25
H      14.12       0.10      -0.45
O      14.42       1.04      -5.30
O       9.84       6.13       2.36
H      14.06       0.02      -2.94
H      16.22       3.75      -3.11
H      10.43       2.23       2.75
H      16.21       3.88      -0.61
O      15.04       0.71       1.89
H      14.38       4.86       1.24
H      12.24       6.01       1.78
O      16.24       2.95       1.81
H      12.60       1.07       2.24
C      13.60       2.90       1.72
C      14.56       0.91      -1.04
C      14.54       0.86      -2.43
C      11.20       4.18       2.29
C      15.76       2.96      -2.52
