29

S      -2.01      14.41      19.37
C      -0.46      13.58      19.04
C      -1.42      15.58      21.80
C      -1.40      15.63      23.19
C       1.94      12.30      18.47
C      -2.62      13.52      23.28
H      -0.98      16.38      21.21
C       1.84      13.70      18.34
H      -0.92      16.46      23.70
C      -2.03      14.61      25.43
O       4.11      12.29      17.52
C      -2.62      13.45      21.89
H       2.71      14.26      18.00
H      -3.08      12.74      23.87
O      -2.81      13.80      26.01
C      -2.02      14.49      21.16
O      -1.28      15.45      26.06
H      -3.07      12.61      21.37
C      -0.37      12.20      19.19
H      -1.24      11.62      19.52
C      -2.00      14.60      23.94
C       0.83      11.56      18.90
H       0.90      10.47      18.98
C       3.21      11.61      18.11
O       3.30      10.36      18.40
C       0.64      14.34      18.63
O      -1.90      15.78      18.87
O      -3.10      13.53      18.95
H       0.54      15.42      18.52
