29

C       6.06      11.21      12.90
C       1.61      11.03       7.96
C       5.48      10.12      15.05
C       6.07      11.28      11.50
C       3.82      12.53       8.81
C       5.47      10.24      10.78
C       0.24      13.11       7.73
C       2.62      13.17       8.52
C       5.45      10.13      13.56
H       4.44       8.35      10.83
S       5.46      10.32       8.99
C       2.81      10.38       8.25
H       4.37       8.27      13.32
H       6.53      11.99      13.49
H       0.74      10.47       7.62
H       6.52      12.12      10.99
H       4.69      13.11       9.14
H       2.55      14.26       8.60
O       6.26      10.93      15.63
O      -0.66      12.44       7.14
H       2.91       9.31       8.14
O       4.73       9.28      15.68
O       0.15      14.37       8.02
O       5.35       8.95       8.49
O       6.55      11.20       8.57
C       3.91      11.14       8.66
C       4.87       9.15      11.42
C       4.85       9.11      12.81
C       1.51      12.43       8.09
