24

N      -0.19      -2.39       5.42
N       1.71      -1.25       3.69
N       0.25      -4.79       6.65
N       0.70      -5.97       7.11
N       2.24      -5.12       5.67
N       3.92      -9.85       6.87
C      -0.40      -1.21       4.82
C       0.54      -0.65       3.96
C       1.93      -2.43       4.29
C       0.98      -3.01       5.15
C       1.19      -4.30       5.80
C       1.90      -6.14       6.50
C       2.67      -7.35       6.68
H       0.35       0.31       3.47
H       2.87      -2.94       4.11
H      -1.35      -0.72       5.05
C       3.68      -7.72       5.78
C       2.36      -8.24       7.72
H       3.96      -7.05       4.98
C       4.26      -8.98       5.90
H       1.61      -7.97       8.46
C       3.00      -9.47       7.79
H       5.02      -9.31       5.19
H       2.77     -10.18       8.57
