504

H       2.86       0.71       9.54
H       4.24       1.58       8.93
H       6.00       0.51       7.64
H       6.00      28.07       7.29
H       4.33       1.85       6.76
H       3.08       0.83       5.42
H       4.34      27.05       5.76
H       3.07      27.97       5.01
H       4.22      26.85       7.90
H       2.84      27.83       9.15
H       1.28      29.08       6.32
H       1.20      29.01       8.04
H      10.77      27.85      24.12
H       9.43      26.91      23.54
H       7.64      27.84      22.19
H       7.55       0.27      21.79
H       9.37      26.57      21.39
H      10.60      27.58      20.00
H       9.14       1.31      20.26
H      10.45       0.44      19.53
H       9.25       1.64      22.41
H      10.71       0.69      23.60
H      12.30      28.81      20.87
H      12.40      28.86      22.58
H      26.27      16.52       4.38
H      25.08      17.25       5.41
H      23.42      15.89       6.64
H      23.33      14.17       6.53
H      25.31      16.75       7.49
H      26.72      15.45       8.35
H      25.19      12.67       7.38
H      26.62      13.32       8.13
H      24.88      13.21       5.33
H      26.19      14.35       4.14
H      28.24      14.72       6.89
H      28.03      15.09       5.20
H      16.23      12.55      19.27
H      17.46      11.72      20.17
H      19.29      12.97      21.36
H      19.41      14.69      21.36
H      17.42      12.14      22.28
H      16.13      13.40      23.35
H      17.66      16.21      22.33
H      16.27      15.57      23.14
H      17.84      15.74      20.24
H      16.35      14.74      19.14
H      14.56      14.31      22.01
H      14.60      13.98      20.31
H       9.87       3.11       1.10
H       9.13       4.24       2.19
H       7.65       6.01       1.46
H       7.26       6.29      29.05
H       6.97       4.10       2.42
H       5.84       2.82       1.19
H       5.89       4.71      27.75
H       5.29       3.23      28.41
H       8.02       4.87      27.49
H       9.37       3.47      28.30
H       6.82       1.37      29.17
H       8.54       1.49      29.07
H      23.59      11.51      26.86
H      22.71      10.14      26.27
H      21.72       8.49      27.81
H      21.83       8.60       0.27
H      20.58      10.16      26.71
H      19.60      11.53      27.96
H      20.76      10.42       1.57
H      19.84      11.68       0.82
H      22.87      10.40       1.12
H      23.89      11.62      29.01
H      20.85      13.32      28.50
H      22.56      13.29      28.14
H       4.39      24.68      15.71
H       5.21      23.42      16.56
H       6.63      21.81      15.48
H       6.95      21.82      13.77
H       7.40      23.51      16.71
H       8.42      24.99      15.63
H       8.21      23.56      12.68
H       8.88      24.92      13.52
H       6.03      23.44      12.50
H       4.80      24.74      13.60
H       7.38      26.65      14.59
H       5.66      26.54      14.59
H      19.60      16.91      12.40
H      20.54      18.25      11.83
H      21.58      19.84      13.40
H      21.56      19.70      15.11
H      22.67      18.18      12.30
H      23.61      16.69      13.45
H      22.47      17.82      16.38
H      23.32      16.52      15.60
H      20.33      17.97      15.97
H      19.29      16.80      14.55
H      22.25      14.98      14.04
H      20.54      15.08      13.68
H       1.46       9.22       2.56
H       1.93       8.67       4.14
H       0.35       7.74       5.75
H      27.91       7.63       5.42
H       1.77       6.54       4.53
H       0.83       5.21       3.20
H      27.00       6.09       3.72
H      28.01       5.08       2.74
H      27.25       8.20       3.36
H      28.61       9.13       2.05
H       0.40       5.99       1.13
H       0.57       7.70       0.85
H      27.45      24.11      11.19
H      26.32      23.08      10.36
H      27.05      21.52       8.65
H      28.70      21.33       8.14
H      26.51      20.98      10.89
H      28.07      20.10      12.00
H       1.20      20.41       9.68
H       0.84      19.93      11.32
H       0.99      22.49       9.18
H       0.22      23.98      10.45
H       0.07      21.57      13.05
H      29.11      23.25      12.68
H      15.66       4.39      25.53
H      16.70       5.47      24.64
H      15.83       7.11      23.12
H      14.14       7.35      22.79
H      16.63       7.55      25.28
H      15.19       8.35      26.60
H      12.57       8.19      24.54
H      13.10       8.60      26.15
H      12.69       6.13      23.92
H      13.55       4.60      25.09
H      14.03       6.87      27.73
H      14.18       5.19      27.27
H      13.02      19.90      17.13
H      12.65      20.23      18.80
H      14.38      21.02      20.42
H      16.04      21.26      19.93
H      12.82      22.28      19.49
H      13.56      23.85      18.30
H      16.73      23.00      18.40
H      15.61      24.09      17.64
H      16.59      20.96      17.71
H      15.07      20.18      16.48
H      13.94      23.35      16.07
H      13.77      21.69      15.56
H       3.59      24.86       7.19
H       0.76      27.22       9.30
H      28.53      25.53       9.14
H       2.15      23.07       7.41
H       9.88       3.72      21.86
H      12.77       1.32      23.83
H      14.24       3.00      23.76
H      11.19       5.56      22.38
H      25.08      11.10       5.50
H      27.69      13.30       2.99
H      28.64      11.32       2.26
H      26.00       9.16       4.77
H      18.18      17.82      20.12
H      15.13      15.95      17.85
H      14.70      17.96      16.79
H      17.81      19.78      19.02
H       7.49       4.31      25.33
H      10.01       1.63      27.43
H      10.16       0.31      25.63
H       7.99       3.16      23.36
H      22.43      11.18       3.09
H      24.68      13.52       0.37
H      25.41      14.82       2.13
H      22.89      12.66       4.73
H       6.59      24.38      10.47
H       4.11      26.70      12.98
H       3.38      27.90      11.21
H       5.75      25.53       8.63
H      20.78      16.98      17.83
H      17.94      15.26      15.22
H      16.95      14.19      17.03
H      19.92      15.82      19.55
H      25.38       7.38       2.51
H      27.83       9.91       0.18
H      25.95      11.03      28.70
H      23.54       8.47       1.77
H       3.23      22.14       9.46
H       1.29      24.93      12.01
H       2.73      24.38      13.66
H       5.12      22.30      10.85
H      10.52       6.60      24.50
H      12.60       3.63      26.72
H      11.38       4.20      28.53
H       8.75       6.38      26.05
H      18.28      21.65      16.50
H      15.56      19.05      14.65
H      17.27      17.58      14.15
H      19.87      20.06      16.39
H      17.62      10.85      28.67
H      19.98       8.09      26.48
H      18.25       6.62      26.48
H      15.82       9.44      28.38
H      25.70      17.26      14.00
H      23.31      20.25      12.16
H      25.00      21.71      12.33
H      27.54      18.60      13.56
H       3.72       2.98       1.09
H       5.93       5.58       3.61
H       3.96       6.56       4.31
H       1.78       3.93       1.80
H      10.51      25.28      15.71
H       8.61      22.24      17.97
H      10.61      21.84      19.08
H      12.41      25.01      16.92
H      26.14      14.83      10.47
H      23.42      17.31       8.36
H      22.26      17.68      10.25
H      25.07      15.41      12.45
H       3.79       0.38       3.43
H       6.27       2.53       6.12
H       7.57       3.20       4.35
H       5.25       0.82       1.75
H      17.09      13.89      25.41
H      19.32      11.33      22.89
H      20.56      10.63      24.64
H      18.28      13.07      27.23
H       9.71      27.96      18.07
H       7.89      25.16      20.67
H       6.90      24.13      18.83
H       8.65      27.04      16.32
H       0.03       3.37       4.10
H       2.61       5.79       6.40
H       3.75       3.91       7.10
H       1.15       1.52       4.77
H      14.86      10.57      26.39
H      17.47       8.63      23.66
H      16.85      10.10      22.07
H      14.99      12.49      25.03
H      28.45      17.91      11.37
H      25.39      20.05       9.36
H      25.77      18.82       7.51
H      28.19      16.20       9.78
H      14.27      25.47      19.59
H      11.51      22.76      21.22
H      10.09      24.51      21.76
H      12.71      27.09      19.67
C       2.86       0.88       7.38
C       3.71       1.24       6.15
C       3.57       0.74       8.70
C       4.33      28.72       8.51
C       5.34      28.93       7.43
C       4.47      29.15       6.23
C       3.69      27.91       5.91
C       2.83      27.84       7.14
C       3.51      27.40       8.45
C       1.90      29.02       7.21
C      10.80      27.62      21.98
C       9.99      27.17      20.76
C      10.06      27.76      23.29
C       9.24      29.01      23.04
C       8.25      28.71      21.95
C       9.14      28.47      20.77
C       9.84       0.49      20.43
C      10.70       0.67      21.64
C      10.01       1.10      22.94
C      11.69      28.81      21.76
C      26.60      16.08       6.49
C      25.94      16.04       7.91
C      25.70      16.35       5.30
C      24.84      15.11       5.26
C      24.03      15.00       6.52
C      25.10      14.80       7.57
C      25.86      13.53       7.36
C      26.50      13.79       6.02
C      25.53      13.82       4.79
C      27.48      14.92       6.13
C      16.09      12.88      21.44
C      16.86      12.83      22.80
C      16.88      12.64      20.15
C      17.80      13.84      20.11
C      18.69      13.88      21.33
C      17.71      14.06      22.45
C      16.97      15.37      22.32
C      16.26      15.21      20.99
C      17.15      15.17      19.70
C      15.25      14.10      21.18
C       7.74       2.83       1.25
C       6.44       3.47       1.75
C       8.96       3.71       1.25
C       8.67       4.67       0.10
C       7.48       5.50       0.50
C       6.37       4.48       0.58
C       6.13       3.92      28.47
C       7.42       3.21      28.21
C       8.64       4.10      27.92
C       7.64       2.09      29.21
C      21.47      11.63      27.29
C      20.15      10.82      27.40
C      22.76      10.85      27.10
C      22.90      10.15      28.42
C      21.76       9.21      28.63
C      20.58      10.15      28.72
C      20.69      11.02       0.66
C      21.93      11.79       0.30
C      23.28      11.02       0.38
C      21.70      12.65      28.36
C       6.52      24.99      15.78
C       7.84      24.31      16.16
C       5.31      24.09      15.70
C       5.54      23.35      14.39
C       6.75      22.48      14.62
C       7.87      23.48      14.83
C       8.03      24.23      13.52
C       6.73      24.99      13.43
C       5.48      24.18      13.06
C       6.56      25.93      14.60
C      21.71      16.70      12.84
C      23.07      17.46      12.94
C      20.47      17.53      12.65
C      20.36      18.23      13.97
C      21.55      19.11      14.20
C      22.67      18.12      14.27
C      22.50      17.23      15.46
C      21.21      16.54      15.12
C      19.91      17.39      15.18
C      21.42      15.68      13.91
C       1.30       7.07       2.80
C       1.27       5.91       3.83
C       1.22       8.48       3.33
C      29.06       8.56       3.82
C      28.89       7.57       4.95
C      29.09       6.24       4.27
C      27.99       6.05       3.24
C      28.27       7.18       2.26
C      27.96       8.62       2.73
C       0.35       6.96       1.63
C      27.67      22.01      11.72
C      27.36      20.54      11.33
C      27.35      23.12      10.74
C      28.35      22.86       9.64
C      28.08      21.54       9.01
C      28.38      20.61      10.16
C       0.55      20.64      10.53
C       0.62      22.05      11.01
C       0.58      23.15       9.91
C      29.05      22.26      12.25
C      15.51       6.45      26.20
C      15.82       7.92      25.86
C      15.72       5.41      25.12
C      14.59       5.73      24.16
C      14.85       7.08      23.58
C      14.69       7.95      24.79
C      13.29       7.92      25.31
C      13.25       6.50      25.74
C      13.13       5.44      24.61
C      14.21       6.21      26.87
C      13.18      21.99      17.62
C      13.18      23.00      18.79
C      13.30      20.54      17.97
C      14.74      20.48      18.36
C      15.01      21.32      19.57
C      14.68      22.70      19.08
C      15.71      23.06      18.01
C      15.42      22.04      16.92
C      15.77      20.55      17.19
C      14.03      22.31      16.42
C       0.14      25.38       8.64
C       1.08      26.38       8.81
C       2.45      26.27       8.35
C       2.69      25.04       7.64
C       1.77      23.99       7.66
C       0.74      24.08       8.66
C      13.34       3.21      23.30
C      12.43       2.16      23.37
C      11.06       2.27      22.90
C      10.78       3.54      22.31
C      11.62       4.64      22.54
C      12.75       4.50      23.42
C      27.90      11.24       2.96
C      27.32      12.44       3.39
C      26.24      12.49       4.34
C      25.84      11.20       4.82
C      26.41      10.02       4.38
C      27.44       9.95       3.38
C      15.46      17.95      17.47
C      15.70      16.75      18.15
C      16.71      16.58      19.15
C      17.42      17.81      19.43
C      17.22      18.99      18.74
C      16.16      19.16      17.80
C       9.56       1.14      25.51
C       9.47       1.95      26.62
C       8.73       3.18      26.65
C       8.08       3.48      25.41
C       8.36       2.77      24.24
C       9.26       1.65      24.21
C      24.68      14.14       2.34
C      24.31      13.29       1.29
C      23.58      12.07       1.50
C      23.04      11.96       2.83
C      23.24      12.92       3.81
C      24.44      13.70       3.68
C       4.07      27.18      11.00
C       4.56      26.47      12.09
C       5.38      25.30      11.96
C       5.95      25.15      10.65
C       5.41      25.83       9.55
C       4.33      26.79       9.65
C      17.83      14.69      17.20
C      18.38      15.39      16.13
C      19.39      16.41      16.30
C      19.99      16.37      17.60
C      19.52      15.59      18.64
C      18.20      15.04      18.54
C      25.79      10.25       0.07
C      26.92       9.53       0.48
C      26.85       8.67       1.63
C      25.55       8.09       1.79
C      24.42       8.79       1.37
C      24.49      10.04       0.64
C       2.89      23.89      12.77
C       2.08      24.33      11.73
C       1.97      23.48      10.58
C       3.17      22.76      10.28
C       4.25      22.73      11.18
C       4.22      23.49      12.41
C      11.14       4.72      27.68
C      11.81       4.26      26.55
C      11.83       5.16      25.43
C      10.63       5.94      25.28
C       9.65       5.95      26.28
C       9.78       5.04      27.40
C      17.52      18.42      14.69
C      16.50      19.37      14.89
C      16.69      20.36      15.92
C      18.03      20.83      15.93
C      19.00      19.83      15.90
C      18.81      18.52      15.31
C      18.11       7.47      27.04
C      19.14       8.40      26.96
C      19.02       9.74      27.47
C      17.79       9.97      28.17
C      16.73       9.07      28.10
C      16.82       8.08      27.06
C      25.19      20.80      12.75
C      24.15      19.88      12.60
C      24.25      18.50      13.01
C      25.52      18.19      13.59
C      26.62      19.04      13.43
C      26.48      20.20      12.58
C       3.88       5.81       3.62
C       5.07       5.21       3.20
C       5.11       4.14       2.25
C       3.82       3.74       1.77
C       2.64       4.33       2.20
C       2.59       5.37       3.19
C      10.60      22.61      18.40
C       9.41      22.81      17.69
C       9.25      23.83      16.69
C      10.48      24.53      16.41
C      11.63      24.39      17.17
C      11.80      23.34      18.13
C      23.06      17.05      10.35
C      23.76      16.81       9.19
C      24.99      16.07       9.16
C      25.31      15.43      10.40
C      24.66      15.78      11.59
C      23.59      16.73      11.65
C       6.85       2.50       4.14
C       6.00       2.17       5.20
C       4.74       1.51       5.00
C       4.60       0.96       3.68
C       5.55       1.15       2.68
C       6.36       2.33       2.82
C      19.85      11.33      24.86
C      19.12      11.80      23.78
C      17.97      12.66      23.91
C      17.84      13.22      25.22
C      18.55      12.71      26.31
C      19.51      11.64      26.21
C       7.42      24.99      18.66
C       8.07      25.58      19.76
C       9.07      26.60      19.61
C       9.09      27.17      18.30
C       8.38      26.66      17.23
C       7.78      25.35      17.33
C       2.96       3.75       6.47
C       2.23       4.89       6.09
C       1.35       4.82       4.96
C       0.76       3.53       4.79
C       1.48       2.40       5.17
C       2.74       2.46       5.89
C      16.41      10.26      22.99
C      16.91       9.42      23.99
C      16.11       9.31      25.18
C      15.42      10.52      25.54
C      15.37      11.61      24.66
C      16.10      11.59      23.41
C      26.36      18.57       8.32
C      26.01      19.24       9.48
C      26.99      19.24      10.54
C      27.75      18.03      10.64
C      27.72      17.09       9.61
C      26.78      17.22       8.52
C      10.95      24.75      21.26
C      11.87      23.70      21.03
C      12.91      23.90      20.06
C      13.42      25.23      20.12
C      12.44      26.23      20.14
C      11.11      26.05      20.67
