77

O       0.96      17.70       7.99
O       2.58      19.30       8.04
O       0.40      14.54      11.49
O       1.99      14.28      13.11
O       5.01      18.11      12.44
O       8.21      18.98      14.79
O      10.66      14.77      13.45
O      12.27      14.51      15.05
O      12.84      18.17      18.41
O      11.25      19.80      18.44
O       0.96      21.75      18.42
O       2.58      20.15      18.37
O       0.40      24.91      14.92
O       1.99      25.17      13.31
O       5.01      21.34      13.98
O       8.21      20.47      11.62
O      10.66      24.68      12.96
O      12.27      24.94      11.36
O      12.84      21.28       8.00
O      11.25      19.65       7.97
H       1.04      16.06       9.69
H       3.68      16.06      13.09
H       4.09      19.07      10.01
H       5.00      20.10      11.78
H       6.32      19.08      11.14
H       6.87      17.67      13.89
H       8.16      18.29      12.82
H       9.15      16.57      13.81
H      12.34      16.35      16.70
H       9.60      19.69      16.78
H       1.04      23.39      16.72
H       3.68      23.39      13.32
H       4.09      20.38      16.40
H       5.00      19.35      14.63
H       6.32      20.38      15.27
H       6.87      21.78      12.52
H       8.16      21.16      13.59
H       9.15      22.88      12.60
H      12.34      23.10       9.71
H       9.60      19.76       9.63
C       2.55      17.61       9.72
C       1.89      16.48      10.22
C       2.30      15.93      11.44
C       3.37      16.48      12.14
C       4.02      17.62      11.63
C       3.62      18.18      10.42
C       2.01      18.25       8.48
C       1.51      14.82      12.05
C       5.71      19.29      12.02
C       7.48      18.55      13.64
C       9.25      18.22      15.24
C       9.66      17.01      14.67
C      10.77      16.35      15.21
C      11.47      16.87      16.30
C      11.03      18.07      16.87
C       9.93      18.74      16.34
C      11.26      15.11      14.53
C      11.77      18.72      18.00
C       2.55      21.85      16.69
C       1.89      22.97      16.19
C       2.30      23.52      14.97
C       3.37      22.97      14.27
C       4.02      21.83      14.78
C       3.62      21.27      15.99
C       2.01      21.20      17.93
C       1.51      24.63      14.36
C       5.71      20.16      14.39
C       7.48      20.90      12.77
C       9.25      21.23      11.17
C       9.66      22.44      11.74
C      10.77      23.10      11.20
C      11.47      22.59      10.11
C      11.03      21.38       9.54
C       9.93      20.71      10.07
C      11.27      24.34      11.88
C      11.77      20.73       8.41
C       6.59      19.73      13.21
