77

O      11.80      11.76      14.92
O      10.21      12.02      13.31
O       7.19       8.19      13.98
O       3.99       7.32      11.62
O       1.54      11.53      12.96
O      -0.06      11.79      11.36
O      -0.64       8.13       8.00
O       0.95       6.50       7.97
O      11.24       4.55       7.99
O       9.62       6.15       8.04
O      11.80       1.39      11.49
O      10.21       1.13      13.11
O       7.19       4.96      12.43
O       3.99       5.83      14.79
O       1.54       1.62      13.45
O      -0.07       1.36      15.05
O      -0.64       5.02      18.41
O       0.95       6.65      18.44
H      11.16      10.24      16.72
H       8.52      10.24      13.32
H       8.11       7.23      16.40
H       7.20       6.20      14.63
H       5.88       7.22      15.27
H       5.33       8.63      12.52
H       4.04       8.01      13.59
H       3.05       9.73      12.60
H      -0.14       9.95       9.71
H       2.60       6.61       9.63
H      11.16       2.91       9.69
H       8.52       2.91      13.09
H       8.11       5.92      10.01
H       7.20       6.95      11.78
H       5.88       5.93      11.14
H       5.33       4.52      13.89
H       4.04       5.14      12.82
H       3.05       3.42      13.81
H      -0.14       3.20      16.70
H       2.60       6.54      16.78
C       9.66       8.69      16.69
C      10.31       9.82      16.19
C       9.90      10.37      14.97
C       8.83       9.82      14.27
C       8.18       8.68      14.78
C       8.58       8.12      15.99
C      10.19       8.05      17.93
C      10.69      11.48      14.36
C       6.49       7.01      14.39
C       4.72       7.75      12.77
C       2.96       8.08      11.17
C       2.55       9.29      11.74
C       1.43       9.95      11.20
C       0.74       9.43      10.11
C       1.17       8.23       9.54
C       2.28       7.56      10.07
C       0.94      11.19      11.88
C       0.44       7.58       8.41
C       9.66       4.45       9.72
C      10.31       3.33      10.22
C       9.90       2.78      11.44
C       8.83       3.33      12.14
C       8.18       4.47      11.63
C       8.58       5.03      10.42
C      10.20       5.10       8.48
C      10.69       1.67      12.05
C       6.49       6.14      12.02
C       4.72       5.40      13.64
C       2.96       5.07      15.24
C       2.55       3.86      14.67
C       1.43       3.20      15.21
C       0.74       3.71      16.30
C       1.17       4.92      16.87
C       2.28       5.59      16.34
C       0.94       1.96      14.53
C       0.44       5.57      18.00
C       5.61       6.57      13.21
O      11.24       8.60      18.42
O       9.62       7.00      18.37
