37

O       3.85       9.55       8.23
O       5.89       8.59       8.48
O      -0.39      10.22       9.60
O      -0.90       9.70      11.74
O       0.03       9.26       5.26
O       6.47       9.92       8.35
O      -0.11       8.11       3.31
H       1.46       8.12      11.40
H       3.02       8.44      10.68
H       2.61       6.80      11.20
H       4.56       6.47       7.88
H       4.24       6.81       9.57
H       3.95       7.15       5.98
H       2.58       7.05       4.89
H       3.17       5.59       5.69
H      -2.20       8.19       8.24
H      -2.25       6.62       7.42
H      -1.82       8.10       6.53
H      -1.70       7.61      10.01
H      -0.41       7.36      11.16
H       0.70       6.15       4.75
H      -0.91       6.43       5.37
C       2.21       7.70      10.72
C       1.64       7.42       9.35
C       2.52       7.12       8.29
C       4.01       7.14       8.55
C       4.56       8.54       8.40
C       2.98       6.67       5.83
C       2.03       6.92       6.98
C       0.64       7.01       6.75
C      -0.24       7.34       7.80
C       0.26       7.50       9.10
C      -1.70       7.57       7.49
C      -0.66       7.89      10.23
C      -0.64       9.40      10.52
C       0.01       8.17       4.55
C       0.11       6.85       5.35
