37

O       1.43       7.00      16.35
O       2.50       5.02      16.12
O       0.56      11.15      15.02
O       1.06      11.75      12.90
O       1.55      10.84      19.46
O       1.20       4.37      16.25
O       2.75      11.03      21.39
H       2.74       9.47      13.26
H       2.50       7.89      13.98
H       4.12       8.38      13.46
H       4.53       6.44      16.79
H       4.24       6.76      15.09
H       3.84       7.02      18.69
H       3.87       8.40      19.77
H       5.36       7.88      18.97
H       2.50      13.11      16.43
H       4.06      13.24      17.24
H       2.60      12.73      18.13
H       3.07      12.64      14.66
H       3.43      11.38      13.51
H       4.70      10.32      19.90
H       4.33      11.91      19.28
C       3.20       8.74      13.94
C       3.46       9.32      15.31
C       3.80       8.46      16.37
C       3.86       6.97      16.10
C       2.48       6.34      16.20
C       4.28       8.02      18.83
C       3.97       8.95      17.68
C       3.82      10.33      17.92
C       3.44      11.20      16.87
C       3.30      10.70      15.56
C       3.14      12.65      17.18
C       2.87      11.59      14.43
C       1.37      11.47      14.11
C       2.66      10.91      20.15
C       3.96      10.88      19.31
