84

Zn       5.11      -2.64       5.32
Zn       2.00       0.16       9.85
Zn      -1.27       2.65       5.27
Zn      -1.79       8.55       4.89
Zn       1.33       5.75       0.36
Zn       4.60       3.26       4.95
H       0.05      -3.31       7.57
H       0.59      -3.15       9.26
H      -0.20      -1.78       8.47
H       5.77      -0.61       7.36
H       4.75       0.62       8.15
H       5.39      -0.74       9.10
H      -3.06       2.54       9.44
H      -2.51       3.89       8.42
H      -3.36       2.53       7.67
H       2.57       0.86       7.07
H       1.50       0.86       5.65
H       2.17       2.39       6.26
H       3.27       1.11       3.42
H       3.82      -0.41       2.66
H       3.00      -0.47       4.22
H      -0.73      -0.21       6.24
H      -1.75      -1.67       6.40
H      -0.82      -1.39       4.91
H       3.28       9.22       2.65
H       2.74       9.06       0.95
H       3.53       7.69       1.74
H      -2.44       6.52       2.85
H      -1.42       5.29       2.06
H      -2.06       6.65       1.12
H       6.39       3.37       0.77
H       5.84       2.02       1.80
H       6.68       3.38       2.54
H       0.75       5.05       3.15
H       1.83       5.05       4.56
H       1.15       3.52       3.96
H       0.06       4.80       6.80
H      -0.50       6.32       7.55
H       0.33       6.38       5.99
H       4.06       6.12       3.98
H       5.08       7.58       3.81
H       4.15       7.30       5.30
C       0.49      -2.62       8.30
C       1.82      -2.15       7.83
C       3.77      -1.23       7.75
C       4.98      -0.45       8.11
C      -2.64       2.80       8.46
C      -1.33       2.12       8.27
C       0.59       1.53       7.46
C       1.77       1.40       6.56
C       3.70       0.12       3.62
C       5.02       0.26       4.30
C       6.94      -0.15       5.19
C      -1.42      -0.88       5.71
C       2.84       8.53       1.91
C       1.51       8.06       2.38
C      -0.44       7.14       2.47
C      -1.65       6.36       2.11
C       5.97       3.11       1.75
C       4.66       3.79       1.95
C       2.74       4.38       2.76
C       1.56       4.51       3.65
C      -0.38       5.79       6.60
C      -1.69       5.65       5.92
C      -3.62       6.06       5.03
C       4.74       6.79       4.51
N       3.59      -1.85       6.57
N       2.33      -2.43       6.63
N       2.69      -1.39       8.56
N       0.44       0.87       8.62
N      -0.80       1.25       9.13
N      -0.49       2.32       7.20
N       6.78       1.18       5.24
N       5.54       1.44       4.67
N       5.87      -0.76       4.61
N      -0.26       7.75       3.65
N       1.00       8.34       3.59
N       0.64       7.30       1.65
N       2.89       5.04       1.60
N       4.12       4.66       1.09
N       3.82       3.59       3.01
N      -3.45       4.73       4.97
N      -2.21       4.47       5.55
N      -2.54       6.67       5.61
