10

O       2.25      13.85      13.68
O       5.00      19.30      19.40
O       4.62      13.69      13.70
O       2.64      19.46      19.38
C       3.46      14.19      14.11
C       3.79      18.96      18.97
C       3.73      17.93      17.93
C       3.53      15.22      15.15
C       3.66      17.07      17.06
C       3.59      16.07      16.02
