30

H       2.76       0.50       4.85
H       4.50       0.87      11.69
H       5.47       3.06      11.97
H       1.78      -1.69       4.57
H       2.42      -2.60       8.69
H       4.84       3.97       7.85
H       1.21      -3.67       5.55
H       6.05       5.04      10.99
C       3.46      -1.16      10.52
C       3.79       2.53       6.02
C       2.49      -1.88       7.89
C       4.76       3.25       8.65
C       2.03      -2.28       6.63
C       5.23       3.65       9.91
C       2.13      -1.40       5.55
C       5.13       2.77      10.99
C       2.68      -0.13       5.73
C       4.57       1.50      10.81
C       3.15       0.30       6.99
C       4.11       1.07       9.55
C       3.05      -0.60       8.10
C       4.20       1.97       8.44
C       3.72       1.58       7.16
C       3.53      -0.21       9.38
O       4.63      -1.61      10.97
O       2.62       2.98       5.57
O       2.24      -1.45      10.97
O       5.02       2.83       5.57
O       1.49      -3.54       6.50
O       5.77       4.91      10.04
