10

O       5.88      11.01      11.13
O       8.63       5.56       5.41
O       8.25      11.17      11.11
O       6.26       5.40       5.43
C       7.35       6.93       6.88
C       7.15       9.64       9.66
C       7.09      10.67      10.70
C       7.42       5.90       5.84
C       7.29       7.79       7.75
C       7.22       8.79       8.79
