16

O       1.36       2.54       8.19
O       3.06       1.15       8.69
C       2.58       2.21       8.09
C       3.54       3.03       7.32
C       3.94       5.18       6.19
C       3.11       4.30       6.89
H       2.09       4.60       7.10
O       3.44       6.38       5.83
O       7.45       5.21       5.02
O       5.76       6.62       4.55
O       5.38       1.39       7.40
C       6.23       5.55       5.13
C       5.28       4.73       5.90
C       4.87       2.59       7.03
C       5.70       3.47       6.32
H       6.72       3.16       6.11
