15

N       8.17      10.43       7.70
C       7.25       8.08       4.81
C       8.44      11.58       5.62
C       8.04      10.46       4.92
H       8.66      12.36       5.16
H       8.79      12.30       7.47
C       7.74       9.35       7.02
C       8.50      11.54       7.00
C       7.68       9.30       5.62
H       8.02      10.47       3.99
O       6.06       7.99       4.43
O       8.14       7.24       4.46
O       6.83       7.15       7.36
O       7.33       8.35       9.16
C       7.29       8.19       7.89
