13

N      10.22       9.22       9.83
H       9.84       7.72      11.07
C      10.50       8.09      10.54
H      11.05      10.52       8.61
H      11.88       6.70      10.99
C      11.22       9.74       9.09
C      11.73       7.48      10.49
C      12.47       9.17       8.99
C      14.11       7.36       9.64
O      15.01       7.86       8.88
O      14.35       6.32      10.33
H      13.12       9.55       8.46
C      12.75       8.01       9.71
