29

C      -1.08       7.43       6.36
C      -2.44       7.41       6.05
C      -3.21       6.29       6.39
C      -2.57       5.25       7.07
C      -1.21       5.33       7.34
C      -4.67       6.22       6.03
C      -4.92       3.87       5.55
C      -4.68       3.98       4.18
C      -4.38       2.83       3.44
C      -4.33       1.58       4.07
C      -4.62       1.47       5.43
C      -4.91       2.62       6.18
C      -4.70       0.13       6.09
C      -4.22       2.92       1.96
H      -0.46       8.29       6.11
H      -2.89       8.26       5.54
H      -3.12       4.36       7.38
H      -0.68       4.53       7.85
H      -4.81       6.48       4.97
H      -5.23       6.95       6.64
H      -4.73       4.94       3.67
H      -4.07       0.70       3.49
H      -5.12       2.54       7.25
N      -0.46       6.40       6.98
O      -3.92       1.86       1.32
O      -4.47       4.04       1.39
O      -4.70      -0.93       5.37
O      -4.84       0.06       7.36
O      -5.25       4.95       6.36
