29

C       2.54      10.89       6.17
C       3.50      11.24       2.01
C       3.16      14.48       6.11
C       4.64      14.39       6.36
C       5.59      14.71       5.38
C       6.94      14.51       5.64
C       6.47      13.74       7.78
C       5.11      13.91       7.59
H       3.05       8.97       3.39
H       3.24      13.24       3.79
H       2.31      10.80       7.23
H       2.69      15.20       6.79
H       2.94      14.77       5.08
H       5.26      15.08       4.41
H       7.71      14.72       4.90
H       6.87      13.36       8.72
H       4.41      13.64       8.38
N       7.39      14.02       6.82
O       2.25       8.30       7.24
O       2.20       7.39       5.21
O       3.63      10.17       1.33
O       3.57      12.41       1.51
O       2.54      13.22       6.46
C       2.36       8.41       5.96
C       2.64       9.74       5.37
C       2.96       9.86       4.02
C       3.19      11.12       3.47
C       3.08      12.28       4.26
C       2.74      12.15       5.61
