22

O       3.50      10.75       0.89
O       5.01       9.13       1.34
H       2.12      12.43       5.08
H       2.63      11.84       2.71
H       5.81       8.21       2.99
H       6.87       7.00       4.85
H       6.34       7.61       7.22
H       4.75       9.43       7.69
C       3.42      10.92       5.88
C       2.81      11.62       4.85
C       3.10      11.30       3.53
C       3.99      10.27       3.18
C       4.64       9.53       4.23
C       5.57       8.48       4.01
C       6.16       7.80       5.06
C       5.87       8.14       6.40
C       4.97       9.16       6.66
C       4.34       9.87       5.60
C       3.07      11.28       7.29
C       4.16      10.06       1.69
O       1.99      10.78       7.74
O       3.86      12.09       7.87
