22

C       8.58       8.18      10.64
C       9.98       8.25      10.62
C      10.60       9.49      10.60
C       9.83      10.70      10.58
C      11.96      12.09      10.52
C       6.14      11.91      10.48
H      10.22      14.10      10.60
H       7.72      13.97      10.47
H       6.72       9.25      10.70
H       8.10       7.20      10.70
H      10.57       7.34      10.65
H      11.68       9.55      10.60
O      12.52      12.71      11.47
O      12.53      11.54       9.51
O       5.48      10.87      10.79
O       5.62      13.03      10.12
C      10.47      11.97      10.56
C       9.71      13.14      10.57
C       8.31      13.07      10.51
C       7.64      11.85      10.53
C       8.39      10.62      10.59
C       7.80       9.32      10.64
