13

C       5.37       6.32       5.75
C       6.25       7.25       4.94
O       6.94       6.47       3.96
H       6.89       7.70       2.28
O       8.40       5.05       2.32
O       9.28       6.91       1.35
H       8.23       8.01       3.43
H       6.97       7.73       5.61
H       5.63       8.02       4.45
O       4.59       6.93       6.55
O       5.48       5.07       5.59
C       8.50       6.30       2.15
C       7.61       7.23       2.96
