13

O       4.78       2.76       3.95
O       3.24       4.58       1.35
O       5.30       4.70       2.31
H       3.75       2.08       2.27
H       2.79       3.09       3.41
H       3.66       2.15       5.60
H       4.10       0.85       4.45
O       5.58       0.50       6.54
O       6.71       2.23       5.60
C       4.16       4.19       2.15
C       3.78       2.95       2.95
C       5.70       1.49       5.75
C       4.45       1.78       4.93
