13

C      -1.19      10.53      13.60
C      -2.45      10.23      12.81
C      -2.79       7.84      10.01
C      -3.16       9.07      10.83
H      -3.22       9.82      13.49
H      -2.83      11.16      12.35
O      -1.31      11.52      14.39
O      -0.17       9.80      13.44
H      -3.24       9.94      10.16
O      -1.65       7.32      10.16
O      -3.71       7.46       9.21
H      -4.12       8.90      11.33
O      -2.13       9.28      11.79
