38

C       6.70       2.30       4.35
C      -1.72       0.86       4.52
C       6.11      -0.08       4.81
C      -0.39       0.43       4.39
C       0.97       4.33       6.61
C       0.59       4.01       8.02
C       1.56       3.62       8.92
C      -0.75       4.10       8.46
C      -3.43       6.11       5.00
C       4.99       7.55       4.82
C      -2.84       8.49       4.54
C       3.66       7.98       4.96
C       2.29       4.08       2.74
C       2.68       4.41       1.33
C       1.70       4.79       0.42
C       4.02       4.32       0.89
H       0.35       2.07       4.11
H       5.22       0.19       4.90
H      -1.49       4.54       6.86
H       2.45       3.56       8.64
H       2.91       6.35       5.24
H      -1.96       8.22       4.45
H       4.76       3.87       2.49
H       0.82       4.85       0.70
Mg       3.84       3.40       5.40
Mg      -0.57       5.01       3.95
O       5.53       2.63       4.53
O      -1.19       3.08       3.96
O       0.63       1.29       4.09
O       2.14       4.18       6.25
O       0.06       4.79       5.87
O      -1.77       4.48       7.63
O      -2.26       5.78       4.81
O       4.46       5.34       5.38
O       2.63       7.12       5.26
O       1.12       4.23       3.09
O       3.21       3.62       3.48
O       5.04       3.93       1.72
