24

H      23.57      24.26      25.13
H      25.74      23.95      26.32
H      26.61      25.75      27.81
H      25.26      27.83      28.13
H      18.78      31.24      27.33
H      19.95      32.20      26.45
H      17.50      30.80      25.16
H      17.64      32.54      25.54
H      18.67      31.80      24.29
N      21.78      28.70      26.43
N      21.18      29.92      26.79
C      23.20      26.21      25.94
C      23.96      25.03      25.79
C      25.17      24.86      26.46
C      25.66      25.87      27.30
C      24.91      27.03      27.48
C      23.68      27.22      26.81
C      22.95      28.47      27.07
C      20.09      30.12      26.08
C      19.26      31.35      26.34
C      18.21      31.64      25.27
O      22.08      26.31      25.22
O      23.42      29.32      27.91
O      19.70      29.25      25.17
