24

N       9.43       2.11      14.41
N      10.03       1.77      15.63
H       7.63       3.41       9.97
H       5.47       2.20       9.67
H       4.60       0.71      11.47
H       5.96       0.40      13.55
H      12.43       1.23      16.95
H      11.26       2.11      17.91
H      13.71       3.40      16.51
H      13.58       3.02      18.25
H      12.55       4.27      17.52
O       9.13       3.32      12.02
O       7.79       0.64      15.04
O      11.51       3.38      14.96
C       8.01       2.60      11.92
C       7.25       2.74      10.74
C       6.04       2.07      10.58
C       5.55       1.23      11.59
C       6.30       1.06      12.75
C       7.53       1.73      12.94
C       8.27       1.48      14.18
C      11.12       2.47      15.83
C      11.95       2.22      17.06
C      13.01       3.29      17.35
