20

C       5.10       8.98       4.36
C       5.65       7.89       5.08
C       5.16       6.60       4.91
C       4.11       6.34       4.02
C       3.57       7.39       3.30
C       4.03       8.72       3.44
C       3.39       9.75       2.65
C       3.34      13.23       2.36
C       2.73      14.29       1.67
N       3.73      11.05       2.83
N       3.03      11.95       2.05
H       6.46       8.11       5.77
H       5.60       5.79       5.49
H       3.71       5.34       3.89
H       2.76       7.20       2.60
H       2.03      14.12       0.86
H       2.98      15.30       1.96
O       5.63      10.18       4.59
O       2.47       9.43       1.78
O       4.23      13.46       3.32
