20

N      23.02      25.32      17.10
N      23.73      26.21      16.33
H      20.29      22.38      20.04
H      21.16      20.05      19.77
H      23.05      19.60      18.17
H      24.00      21.46      16.87
H      24.71      28.38      15.12
H      23.78      29.57      16.23
C      21.65      23.24      18.63
C      21.10      22.16      19.35
C      21.59      20.87      19.19
C      22.64      20.60      18.29
C      23.19      21.65      17.57
C      22.72      22.98      17.71
C      23.37      24.02      16.92
C      23.41      27.49      16.64
O      21.11      24.44      18.85
O      24.28      23.71      16.05
C      24.02      28.55      15.94
O      22.54      27.72      17.61
