26

C      21.71      11.94       7.05
C      20.83      12.16       8.10
C      19.48      12.38       7.84
C      19.07      12.34       6.50
C      20.01      12.10       5.50
C      18.50      12.63       8.95
C      15.16      10.62      12.01
C      16.02      10.46      10.93
N      21.32      11.91       5.76
C      16.60      11.59      10.33
C      16.24      12.84      10.85
C      17.56      11.43       9.18
C      15.37      12.92      11.93
N      14.84      11.83      12.51
H      22.78      11.78       7.23
H      21.22      12.17       9.12
H      18.02      12.49       6.22
H      19.71      12.06       4.46
H      19.04      12.85       9.89
H      17.90      13.52       8.71
H      14.70       9.76      12.49
H      16.25       9.46      10.57
H      16.65      13.76      10.43
H      15.08      13.88      12.36
H      16.99      11.22       8.26
H      18.17      10.53       9.35
