38

C       8.64      15.94      17.51
H      11.44      17.43      16.27
H       8.38      11.19      11.63
H      11.04      15.76      14.46
H       4.20      10.89      10.10
O      12.15      11.89      12.37
O       1.05      11.55      12.37
O       1.78      10.34      10.65
H       7.99      16.00      18.38
O       9.18      17.73      19.52
O      10.89      18.68      18.31
H      11.12      13.53      13.92
O      10.63      10.88      11.03
H       5.20      12.79      14.58
H       6.53      11.50      10.67
H       7.57      14.33      16.58
H       6.87      14.11      14.46
H       2.88      12.15      13.98
C       5.74      11.65      11.40
C       9.27      14.93      15.38
C       4.99      12.39      13.59
C       6.05      12.21      12.67
C       9.74      16.81      17.43
C      10.60      16.74      16.32
C      10.97      11.64      11.97
C       7.42      12.60      13.01
C       3.40      11.48      12.00
C       2.00      11.10      11.65
C       9.96      17.83      18.52
C       4.44      11.30      11.07
C       9.83      12.33      12.69
C       8.41      15.02      16.50
C       3.69      12.02      13.27
C       7.69      13.58      13.98
C      10.38      15.80      15.32
C       8.52      11.98      12.36
C       9.01      13.94      14.33
C      10.08      13.30      13.66
