38

O       8.34       9.37       9.85
O       9.08       8.17       8.13
H      -0.92       3.96       6.04
H       4.93       6.93       5.92
O      -0.50       8.84       9.47
O       0.95       1.99       0.98
H       5.92       8.83      10.40
H       3.59       8.21       9.83
O      -2.02       7.83       8.13
O      -0.76       1.04       2.19
H       7.25       7.57       6.52
H       1.75       8.52       8.88
H      -1.31       2.28       4.23
H       2.13       3.71       2.12
H       3.26       5.61       6.04
H      -0.99       6.19       6.59
H       2.55       5.39       3.92
C       5.14       7.33       6.91
C      -0.48       2.98       4.18
C       0.04       6.41       6.84
C       2.43       6.14       6.52
C       6.73       8.24       8.50
C       4.08       7.50       7.83
C       1.72       4.70       4.00
C       0.29       7.38       7.81
C       2.70       7.11       7.49
C      -0.84       8.07       8.53
C       0.17       1.88       1.98
C       1.12       5.77       6.18
C       0.39       2.90       3.07
C       6.44       7.69       7.23
C       5.69       8.41       9.43
C       1.48       3.78       2.99
C       1.61       7.74       8.14
C       4.38       8.06       9.10
C       8.12       8.62       8.85
C      -0.25       3.91       5.18
C       0.86       4.78       5.12
