21

Mn       0.78       7.47       9.48
Mn      -6.27       5.35       8.77
C      -4.31       4.24      10.93
Mn      -2.74       6.41       9.13
O      -0.35       8.59      10.86
O      -2.50       8.04      10.59
O       1.27       5.57       8.39
O      -0.69       5.73       9.41
O      -0.00       8.46       7.77
O      -2.14       7.81       7.54
O      -5.14       4.23       7.39
O      -2.98       4.78       7.66
O      -6.75       7.25       9.86
O      -4.80       7.09       8.84
O      -5.48       4.36      10.48
O      -3.35       5.01      10.71
C      -1.58       8.75      11.05
C       0.24       5.04       8.86
C      -1.17       8.58       7.32
C      -3.90       4.07       7.20
C      -5.72       7.78       9.39
