21

Mn      -0.18       5.35       0.35
C       4.50       8.75      -1.93
Mn       6.87       7.47      -0.35
Mn       3.34       6.41       0.00
C       6.32       5.04       0.27
O       0.60       4.36      -1.35
O       2.73       5.01      -1.59
O       0.95       4.23       1.73
O       3.10       4.78       1.46
O      -0.67       7.25      -0.73
O       1.29       7.09       0.28
O       6.08       8.46       1.35
O       3.95       7.81       1.59
O       5.73       8.59      -1.73
O       3.58       8.04      -1.46
O       7.35       5.57       0.73
O       5.40       5.73      -0.28
C       1.77       4.24      -1.80
C       2.18       4.07       1.93
C       0.36       7.78      -0.27
C       4.91       8.58       1.80
