576

C       3.04       5.05       4.35
C       3.76       4.31       5.32
C       3.83       2.90       5.27
C       3.15       2.23       4.23
C       2.41       2.94       3.26
C       2.36       4.35       3.31
C       3.03       6.47       4.40
C       2.32       7.17       5.42
C       2.24       8.59       5.39
C       2.90       9.29       4.35
C       3.64       8.61       3.36
C       3.70       7.20       3.40
C      15.49      26.56       4.34
C      16.16      27.32       3.35
C      16.19      28.73       3.39
C      15.52      29.38       4.46
C      14.83      28.65       5.45
C      14.82      27.23       5.39
C      15.52      25.14       4.26
C      14.86      24.44       3.22
C      14.92      23.03       3.16
C      15.65      22.33       4.15
C      16.32      23.00       5.20
C      16.24      24.41       5.24
C      15.33       6.58      24.45
C      14.65       7.33      25.44
C      14.60       8.74      25.40
C      15.25       9.40      24.33
C      15.95       8.68      23.34
C      15.98       7.27      23.39
C      15.31       5.16      24.50
C      15.97       4.45      25.54
C      15.95       3.03      25.56
C      15.28       2.34      24.53
C      14.62       3.03      23.49
C      14.63       4.44      23.50
C       3.26      25.19      24.36
C       2.58      24.46      23.35
C       2.61      23.04      23.33
C       3.30      22.36      24.36
C       3.96      23.07      25.39
C       3.94      24.49      25.38
C       3.24      26.61      24.32
C       3.92      27.33      23.31
C       3.96      28.75      23.34
C       3.30      29.43      24.39
C       2.60      28.73      25.39
C       2.56      27.32      25.34
C       9.35      35.96      13.62
C       8.59      36.92      12.92
C       8.52      36.90      11.51
C       9.22      35.89      10.81
C      10.01      34.93      11.48
C      10.05      34.96      12.90
C       9.33      35.98      15.05
C      10.03      36.97      15.79
C       9.96      37.00      17.21
C       9.14      36.04      17.85
C       8.45      35.05      17.14
C       8.56      35.02      15.73
C      21.49      35.88      35.08
C      20.73      34.90      35.77
C      20.64      34.92      37.18
C      21.33      35.92      37.89
C      22.13      36.89      37.24
C      22.19      36.87      35.82
C      21.53      35.85      33.66
C      22.32      34.90      32.96
C      22.34      34.89      31.54
C      21.54      35.83      30.85
C      20.73      36.78      31.52
C      20.74      36.77      32.94
C      21.57      15.85      15.12
C      22.35      16.77      15.86
C      22.36      16.77      17.27
C      21.55      15.82      17.93
C      20.75      14.88      17.23
C      20.78      14.90      15.81
C      21.59      15.91      13.70
C      20.94      16.95      13.00
C      20.97      16.98      11.58
C      21.69      15.99      10.88
C      22.35      14.94      11.57
C      22.28      14.91      12.98
C       9.21      15.85      33.80
C       9.98      14.87      33.12
C      10.09      14.89      31.72
C       9.41      15.89      30.99
C       8.60      16.86      31.64
C       8.53      16.84      33.06
C       9.17      15.82      35.22
C       8.38      14.86      35.92
C       8.37      14.85      37.34
C       9.18      15.78      38.03
C       9.99      16.73      37.36
C       9.97      16.73      35.95
C      22.87      37.82      38.04
C      23.64      37.38      39.14
C      24.31      38.28      40.01
C      24.23      39.67      39.73
C      23.49      40.12      38.62
C      22.81      39.21      37.79
C       0.31       0.52       0.45
C       1.71       0.64       0.39
C       2.40       1.46       1.30
C       1.70       2.21       2.27
C       0.29       2.12       2.30
C      24.13       1.27       1.42
C       0.48      37.74       1.07
C      22.65       1.16       1.55
C      10.74      33.97      10.70
C      11.51      34.39       9.59
C      12.18      33.46       8.75
C      12.10      32.07       9.05
C      11.35      31.65      10.17
C      10.67      32.59      10.98
C      12.72      31.09       8.23
C      14.13      30.96       8.30
C      14.82      30.12       7.41
C      14.12      29.36       6.45
C      12.71      29.45       6.41
C      12.00      30.31       7.28
C      12.91      33.97       7.55
C      10.52      30.43       7.14
C      19.96      13.95      17.98
C      19.15      14.39      19.05
C      18.47      13.48      19.90
C      18.58      12.09      19.65
C      19.36      11.65      18.55
C      20.05      12.56      17.74
C      17.98      11.12      20.50
C      16.58      10.94      20.43
C      15.91      10.11      21.34
C      16.63       9.41      22.33
C      18.04       9.54      22.37
C      18.73      10.40      21.48
C      17.71      14.01      21.07
C      20.20      10.57      21.63
C       7.88      17.80      30.83
C       7.13      17.37      29.71
C       6.49      18.27      28.83
C       6.57      19.67      29.10
C       7.29      20.11      30.24
C       7.94      19.19      31.08
C       5.97      20.64      28.24
C       4.57      20.78      28.27
C       3.90      21.60      27.35
C       4.64      22.33      26.39
C       6.05      22.23      26.38
C       6.73      21.38      27.29
C       5.78      17.74      27.63
C       8.21      21.25      27.19
C      13.93       9.50      26.41
C      14.16       9.25      27.78
C      13.58      10.07      28.79
C      12.74      11.15      28.40
C      12.47      11.37      27.03
C      13.06      10.56      26.05
C      12.17      12.06      29.34
C      10.95      11.72      29.95
C      10.29      12.64      30.79
C      10.83      13.91      31.02
C      12.07      14.25      30.42
C      12.75      13.34      29.58
C      13.88       9.80      30.22
C      14.05      13.74      28.97
C       4.63      29.52      22.34
C       4.25      29.44      20.99
C       4.82      30.29      20.00
C       5.81      31.23      20.40
C       6.21      31.29      21.75
C       5.63      30.45      22.71
C       6.37      32.19      19.50
C       7.47      31.80      18.70
C       8.12      32.73      17.87
C       7.69      34.07      17.84
C       6.58      34.46      18.62
C       5.90      33.53      19.45
C       4.36      30.19      18.59
C       4.73      33.99      20.24
C      17.02      22.25       6.20
C      16.87      22.54       7.58
C      17.50      21.76       8.58
C      18.30      20.65       8.19
C      18.48      20.38       6.81
C      17.85      21.17       5.84
C      18.90      19.76       9.12
C      20.22      20.03       9.56
C      20.89      19.14      10.40
C      20.26      17.95      10.84
C      18.94      17.69      10.41
C      18.25      18.57       9.55
C      17.30      22.10      10.01
C      16.87      18.23       9.10
C      10.70      37.93      18.01
C      11.43      37.49      19.14
C      12.07      38.38      20.02
C      12.03      39.78      19.74
C      11.33       0.10      18.59
C      10.67      39.32      17.75
C      12.63       0.62      20.60
C      14.04       0.71      20.62
C      14.69       1.52      21.56
C      13.95       2.30      22.48
C      12.54       2.25      22.43
C      11.86       1.41      21.51
C      12.74      37.85      21.24
C      10.38       1.33      21.56
C      23.14      33.97      30.79
C      23.92      34.41      29.69
C       0.04      33.51      28.83
C      24.51      32.11      29.10
C      23.77      31.67      30.21
C      23.08      32.58      31.03
C       0.57      31.15      28.25
C       1.98      31.02      28.27
C       2.65      30.20      27.35
C       1.92      29.45      26.41
C       0.51      29.53      26.41
C      24.37      30.38      27.31
C       0.76      34.05      27.65
C      22.89      30.50      27.20
C       7.59      13.92      38.10
C       6.82      14.35      39.20
C       6.15      13.44      40.06
C       6.23      12.05      39.79
C       6.97      11.61      38.66
C       7.65      12.53      37.84
C       5.64      11.07       0.51
C       4.23      10.94       0.50
C       3.57      10.11       1.41
C       4.30       9.35       2.35
C       5.71       9.43       2.34
C       6.39      10.30       1.44
C       5.44      13.97       1.14
C       7.88      10.42       1.54
C       1.54       9.34       6.38
C       1.89       9.25       7.75
C       1.30      10.10       8.72
C       0.33      11.05       8.31
C      24.50      11.11       6.95
C       0.54      10.27       6.00
C      24.33      12.03       9.19
C      23.22      11.67       9.98
C      22.59      12.62      10.80
C      23.05      13.95      10.84
C      24.17      14.30      10.06
C       0.28      13.36       9.24
C       1.74      10.01      10.14
C       1.48      13.78       8.46
C      16.85      29.50       2.39
C      16.63      29.25       1.01
C      17.21      30.07       0.00
C      18.02      31.17       0.39
C      18.27      31.40       1.76
C      17.69      30.58       2.74
C      18.58      32.08      39.58
C      19.82      31.76      38.97
C      20.47      32.67      38.13
C      19.90      33.94      37.88
C      18.66      34.26      38.47
C      17.98      33.35      39.31
C      16.92      29.79      38.69
C      16.68      33.74      39.91
C      10.78      17.67      38.10
C      11.48      17.27      39.27
C      12.18      18.19      40.08
C      12.20      19.56      39.70
C      11.54      19.97      38.52
C      10.84      19.03      37.74
C      12.84      20.56       0.38
C      14.25      20.62       0.37
C      14.94      21.47       1.26
C      14.23      22.29       2.16
C      12.81      22.26       2.14
C      12.10      21.39       1.27
C      12.83      17.71       1.21
C      10.62      21.34       1.35
C      19.95      37.73      30.78
C      19.27      37.34      29.60
C      18.59      38.28      28.78
C      18.57      39.65      29.17
C      19.21      40.03      30.36
C      19.90      39.09      31.15
C      17.96       0.53      28.36
C      16.55       0.61      28.34
C      15.89       1.46      27.45
C      16.62       2.28      26.57
C      18.03       2.24      26.61
C      18.72       1.37      27.49
C      17.96      37.81      27.51
C      20.20       1.31      27.44
C       4.54       2.15       6.26
C       4.35       2.38       7.64
C       4.96       1.57       8.63
C       5.80       0.50       8.22
C       6.02       0.29       6.84
C       5.40       1.10       5.88
C       6.39      39.70       9.13
C       7.63      40.05       9.73
C       8.31      39.14      10.55
C       7.77      37.86      10.80
C       6.53      37.52      10.22
C       5.82      38.42       9.39
C       4.69       1.83      10.07
C       4.51      38.02       8.81
C      23.15      17.70      18.03
C      23.81      17.31      19.22
C      24.49      18.23      20.05
C      24.54      19.60      19.66
C      23.93      19.99      18.46
C      23.23      19.07      17.66
C       0.61      20.59      20.48
C       2.02      20.61      20.56
C       2.68      21.44      21.47
C       1.95      22.30      22.31
C       0.54      22.33      22.21
C      24.41      21.47      21.31
C       0.53      17.75      21.33
C      22.92      21.47      21.30
H       4.27       4.82       6.05
H       3.15       1.21       4.20
H       2.88      10.31       4.34
H       4.22       6.70       2.67
H       2.17       5.10       1.58
H       2.23       6.24       7.07
H      16.66      26.83       2.60
H      15.49      30.40       4.48
H      15.65      21.30       4.12
H      16.73      24.92       5.98
H      14.70      26.48       7.13
H      14.70      25.18       1.48
H      14.16       6.83      26.19
H      15.27      10.42      24.31
H      15.27       1.31      24.53
H      14.14       4.94      22.75
H      16.12       6.54      21.64
H      16.08       5.15      27.30
H       2.08      24.96      22.61
H       3.32      21.34      24.36
H       3.30      30.45      24.41
H       2.06      26.80      26.08
H       4.05      25.18      27.14
H       4.03      26.45      21.63
H       8.07      37.64      13.44
H       9.15      35.87       9.79
H       9.06      36.06      18.87
H       8.04      34.31      15.20
H      10.31      33.40      13.95
H      10.32      38.53      14.74
H      20.22      34.19      35.24
H      21.26      35.92      38.92
H      21.55      35.83      29.83
H      20.15      37.43      33.45
H      22.45      38.43      34.78
H      22.61      33.35      34.03
H      22.95      17.44      15.35
H      21.52      15.81      18.95
H      21.71      16.01       9.86
H      22.76      14.16      13.48
H      20.48      13.34      14.76
H      20.81      18.67      13.77
H      10.48      14.15      33.65
H       9.49      15.90      29.97
H       9.17      15.78      39.05
H      10.56      17.39      35.43
H       8.26      18.41      34.10
H       8.09      13.32      34.85
H      22.24      39.58      37.03
H       2.26       0.09      39.84
H       3.43       1.50       1.26
H      24.34       2.64       3.03
H      23.70      36.37      39.33
H       0.38      36.66       1.17
H       0.08      38.20       1.98
H       1.54      37.97       1.00
H      23.42       1.00      38.41
H      22.38       0.12       1.75
H      22.17       1.48       0.63
H      22.26       1.77       2.37
H      10.09      32.24      11.74
H      14.67      31.52       8.97
H      15.84      30.10       7.45
H      12.21      28.93       5.69
H      11.58      35.39       9.38
H      12.82      35.05       7.43
H      12.51      33.50       6.65
H      13.97      33.74       7.64
H      11.26      30.66      10.40
H      10.25      31.47       6.92
H      10.03      30.13       8.06
H      10.12      29.81       6.33
H      20.65      12.20      17.00
H      16.02      11.46      19.74
H      14.89      10.04      21.30
H      18.56       9.06      23.11
H      19.07      15.40      19.24
H      17.78      15.10      21.16
H      18.10      13.58      21.99
H      16.65      13.76      20.97
H      19.46      10.64      18.36
H      20.43      11.62      21.81
H      20.70      10.25      20.71
H      20.61       9.99      22.45
H       8.50      19.56      31.85
H       4.00      20.24      28.94
H       2.88      21.65      27.37
H       6.57      22.74      25.67
H       7.07      16.36      29.52
H       5.87      16.66      27.53
H       6.20      18.19      26.73
H       4.72      17.98      27.68
H       7.37      21.11      30.44
H       8.47      20.20      27.00
H       8.67      21.57      28.13
H       8.63      21.85      26.39
H      12.86      10.76      25.07
H      10.50      10.82      29.76
H       9.38      12.38      31.18
H      12.45      15.19      30.57
H      14.80       8.50      28.05
H      14.55       8.94      30.35
H      14.36      10.67      30.67
H      12.96       9.58      30.76
H      11.87      12.14      26.73
H      14.83      13.03      29.26
H      13.96      13.75      27.88
H      14.38      14.73      29.29
H       5.92      30.54      23.69
H       7.83      30.84      18.75
H       8.94      32.43      17.35
H       6.28      35.44      18.60
H       3.50      28.79      20.72
H       3.59      29.43      18.45
H       3.94      31.15      18.27
H       5.20      29.94      17.94
H       6.91      31.97      22.06
H       3.85      33.38      19.99
H       4.93      33.88      21.31
H       4.47      35.03      20.06
H      18.00      20.93       4.85
H      20.71      20.87       9.23
H      21.86      19.34      10.67
H      18.49      16.81      10.71
H      16.26      23.31       7.86
H      16.67      22.98      10.15
H      16.83      21.27      10.54
H      18.27      22.31      10.48
H      19.05      19.58       6.51
H      16.17      19.01       9.39
H      16.86      18.12       8.01
H      16.51      17.29       9.53
H      10.12      39.69      16.97
H      14.60       0.14      19.99
H      15.72       1.53      21.58
H      12.01       2.79      23.11
H      11.47      36.48      19.34
H      12.62      36.77      21.35
H      12.32      38.32      22.13
H      13.81      38.05      21.21
H      11.28       1.10      18.38
H      10.07       0.30      21.76
H       9.95       1.66      20.61
H       9.95       1.96      22.35
H      22.49      32.21      31.78
H       2.53      31.58      28.93
H       3.67      30.17      27.36
H      24.54      29.01      25.70
H      23.97      35.42      29.50
H       0.66      35.13      27.54
H       0.37      33.59      26.73
H       1.83      33.82      27.72
H      23.69      30.67      30.41
H      22.61      31.53      27.01
H      22.43      30.17      28.14
H      22.47      29.89      26.40
H       8.23      12.16      37.09
H       3.66      11.50      39.97
H       2.54      10.08       1.41
H       6.24       8.91       3.04
H       6.76      15.35      39.40
H       5.53      15.05       1.24
H       5.84      13.51       2.04
H       4.37      13.74       1.07
H       7.05      10.61      38.46
H       8.15      11.46       1.74
H       8.33      10.11       0.60
H       8.30       9.80       2.33
H       0.27      10.36       5.02
H      22.83      10.72       9.93
H      21.75      12.34      11.33
H      24.51      15.27      10.09
H       2.64       8.61       8.03
H       2.50       9.24      10.29
H       2.16      10.96      10.46
H       0.89       9.77      10.77
H      23.81      11.79       6.63
H       2.33      13.15       8.72
H       1.28      13.67       7.39
H       1.76      14.82       8.64
H      17.88      30.79       3.73
H      20.27      30.86      39.17
H      21.39      32.43      37.74
H      18.26      35.19      38.30
H      16.01      28.49       0.74
H      16.27      28.92      38.56
H      16.43      30.65      38.24
H      17.85      29.59      38.16
H      18.86      32.18       2.06
H      15.91      33.01      39.63
H      16.76      33.76       0.88
H      16.34      34.72      39.58
H      10.32      19.38      36.92
H      14.79      20.02      39.88
H      15.96      21.46       1.26
H      12.30      22.83       2.82
H      11.47      16.28      39.54
H      12.67      16.64       1.39
H      12.43      18.25       2.07
H      13.91      17.88       1.16
H      11.54      20.95      38.24
H      10.30      20.33       1.60
H      10.19      21.62       0.39
H      10.21      22.02       2.11
H      20.40      39.42      31.98
H      15.99      40.12      28.94
H      14.86       1.45      27.42
H      18.56       2.82      25.95
H      19.27      36.36      29.32
H      18.11      36.75      27.33
H      18.38      38.35      26.67
H      16.88      37.99      27.55
H      19.22       0.89      30.66
H      20.53       0.29      27.19
H      20.62       1.58      28.42
H      20.63       1.99      26.70
H       5.58       0.90       4.89
H       8.06       0.83       9.53
H       9.22      39.40      10.94
H       6.15      36.58      10.39
H       3.71       3.13       7.94
H       4.02       2.68      10.23
H       4.23       0.96      10.53
H       5.63       2.05      10.59
H       6.62      39.64       6.52
H       3.74      38.72       9.11
H       4.58      38.00       7.72
H       4.20      37.02       9.14
H      22.75      19.41      16.82
H       2.58      19.97      19.98
H       3.70      21.39      21.54
H       0.01      22.93      22.84
H      23.78      16.32      19.50
H       0.33      16.69      21.52
H       0.10      18.31      22.17
H       1.61      17.89      21.32
H      23.95      20.98      18.16
H      22.54      20.48      21.55
H      22.55      21.76      20.32
H      22.49      22.17      22.03
O       1.63       5.05       2.40
O       1.60       6.48       6.35
O      14.13      26.51       6.33
O      14.14      25.14       2.29
O      16.68       6.56      22.45
O      16.66       5.14      26.50
O       4.62      25.18      26.34
O       4.65      26.66      22.37
O      10.88      34.10      13.57
O      10.88      37.82      15.13
O      23.02      37.73      35.16
O      23.16      34.08      33.66
O      19.94      14.09      15.11
O      20.22      17.89      13.68
O       7.69      17.71      33.70
O       7.54      14.05      35.22
