24

Mn       7.18       4.03      22.01
C       4.62       6.55      18.54
Mn       3.03       4.04      19.44
C       3.30       6.95      20.39
C       3.56       1.08      18.56
C       2.51       1.34      20.61
N       7.95       6.05      21.97
N       7.37       1.87      21.85
N       3.78       6.08      19.48
N       3.23       1.89      19.60
O       5.13       4.12      21.77
O       2.91       4.19      21.61
O       2.99       4.00      17.36
O       7.13       3.98      24.08
O       9.34       4.06      19.66
O       7.11       4.13      19.85
C       3.99       4.39      22.24
C       8.76       6.54      22.94
C       7.49       6.92      21.04
C       7.72       1.06      22.87
C       6.63       1.33      20.85
C       3.89       3.95      16.41
C       8.03       3.88      25.03
C       8.19       4.35      19.21
