26

O       3.56       8.05       7.61
O       5.72       8.60       7.33
O       1.18      17.24       1.37
O       3.33      17.89       1.60
H       2.17      10.06       6.83
H       1.65      11.97       5.63
H       5.38      12.04       4.13
H       5.93      10.19       5.40
H       0.82      15.01       2.36
H       1.25      13.06       3.52
H       4.94      14.41       4.40
H       4.48      16.39       3.28
C       4.49       8.76       7.15
C       4.11       9.94       6.28
C       2.82      10.47       6.31
C       2.51      11.61       5.58
C       3.46      12.24       4.77
C       4.74      11.66       4.69
C       5.07      10.54       5.45
C       2.36      17.12       1.81
C       2.62      15.90       2.67
C       1.65      14.89       2.76
C       1.91      13.72       3.45
C       3.16      13.50       4.06
C       4.11      14.53       3.99
C       3.84      15.71       3.31
