14

O      -3.00       6.60      16.06
O      -5.28       5.25      13.13
Cd      -4.49       6.97      14.41
C      -2.08       7.46      16.31
C      -7.42       7.60      15.74
C      -5.90       7.82      17.29
C      -2.13       8.18      12.18
C      -5.19       4.15      13.79
N      -2.77       7.13      12.81
C      -2.24       6.02      12.32
N      -6.14       7.37      16.00
C      -5.77       8.05      11.66
N      -5.78       8.38      12.95
C      -6.77       9.34      13.10
