22

C       8.06       5.90       2.61
O       3.81       4.81       3.19
O       5.54       2.64       3.31
O       7.79       2.45       6.20
O       8.80       5.04       6.07
O       7.87       7.07       6.16
C       4.16       5.94       2.74
C       6.60       2.24       2.73
C       8.68       6.20       6.59
C       4.73       5.60       6.75
C       6.64       2.27       6.69
Cr       8.21       3.80       4.68
Cr       6.46       6.76       4.67
Cr       4.78       3.76       4.70
O       7.76       2.44       3.19
O       5.13       6.65       6.07
O       3.85       4.82       6.20
O       5.58       2.65       6.10
O       6.48       4.77       4.68
O       8.76       5.03       3.28
O       7.83       7.06       3.16
O       5.09       6.64       3.28
