126

Zr      14.71      14.80       7.96
Zr       9.09       9.16       0.00
Zr      16.52      13.04      10.45
Zr       7.39       7.36       2.49
Zr      13.00      12.99      10.48
Zr       5.58       9.13       0.04
H       3.18       3.23       2.86
H      11.60      11.50       2.85
H      13.44       5.33       0.06
H      12.54      20.97      10.44
H       1.34       9.50       0.01
H      16.68      12.70       4.56
H       9.34       5.42       5.77
H      12.77      16.84       4.71
H      11.64       3.27       2.86
H       3.23      11.40       2.86
H      18.80      10.68       7.70
H      12.69       8.69      10.42
H       1.18       5.21       0.08
H      16.83      20.83      10.37
H       9.32       9.35       5.79
H      16.69      16.84       4.71
H      12.80      12.71       4.70
H       5.32       5.52       5.80
H      17.49      14.83       8.49
H      11.94      14.76       8.53
H       7.35      10.15       1.99
H       7.41       4.59       1.93
H      10.96      10.86       8.64
H       9.82       9.66       8.07
H      10.96      18.73       8.63
H       9.89      19.98       8.06
H       9.93       2.23       0.02
H      10.68       0.66       0.16
H      18.54      18.66       8.62
H      19.82      19.69       8.06
H       6.00       8.62       5.48
H       5.51       8.95       7.12
H      12.53       9.94       0.24
H      14.09      10.69       0.35
C      18.62      18.91       6.62
C      10.74      10.76       6.62
C       3.36       3.47       3.90
C      11.38      11.30       3.90
C      14.04       6.23       0.05
C      13.49      21.50      10.41
C       0.74       8.59       0.03
C      16.04       8.04      10.36
C      17.43      11.98       4.86
C      10.11       4.69       5.55
C       4.63      10.11       5.70
C      12.01      17.59       4.93
C      11.41       3.47       3.90
C       3.39      11.26       3.93
C      10.73      18.81       6.61
C      18.63      10.84       6.63
C      14.11       8.68       0.03
C      13.59       8.09      10.40
C       0.65       6.16       0.06
C      15.92      21.42      10.38
C      10.09      10.08       5.56
C      17.42      17.62       4.92
C      12.03      11.97       4.92
C       4.57       4.76       5.57
C      16.91      17.14       7.31
C      17.65      17.92       6.29
C      12.51      12.47       7.30
C      11.75      11.72       6.28
C       5.10       5.16       3.17
C       4.32       4.45       4.24
C       9.66       9.60       3.17
C      10.40      10.34       4.23
C      11.87       7.44       0.04
C      13.35       7.46       0.04
C      14.68      19.27      10.43
C      14.70      20.76      10.41
C       2.88       7.34       0.08
C       1.39       7.36       0.06
C      14.79      10.26      10.39
C      14.82       8.78      10.37
C      16.92      12.51       7.27
C      17.67      11.76       6.23
C       9.70       5.18       3.15
C      10.43       4.43       4.22
C       5.08       9.57       3.24
C       4.37      10.32       4.31
C      12.48      17.08       7.32
C      11.73      17.84       6.29
N      10.36      10.50       7.91
N      10.34      19.09       7.91
N      17.28       8.62      10.30
N      18.90      19.30       7.91
N       5.61       9.26       6.17
N      20.89      17.32      10.48
O      16.71      14.81       9.05
O      12.74      14.76       9.08
O       7.40       5.39       1.39
O       7.35       9.36       1.42
O       8.84       7.39       1.03
O       5.90       7.36       1.05
O      14.70      16.25       9.45
O      14.75      13.33       9.43
O      16.06      16.26       6.92
O      13.36      13.35       6.91
O      11.25       8.57       0.05
O      15.82      18.68      10.44
O      17.21      12.25       8.50
O       9.98       4.90       1.93
O       8.82       6.03       3.54
O      16.06      13.38       6.88
O      11.29       6.30       0.01
O      13.54      18.69      10.47
O      17.19      17.37       8.55
O      12.28      12.20       8.54
O       5.98       6.00       3.56
O       8.81       8.72       3.55
O       3.46       6.20       0.07
O      13.65      10.85      10.42
O       4.80       9.84       2.02
O      12.21      17.32       8.56
O       5.97       8.69       3.60
O      13.35      16.22       6.92
O      15.92      10.89      10.41
O       3.47       8.48       0.10
O       9.91       9.91       1.95
O       4.85       4.85       1.96
