16

C       5.90      11.78      12.27
C       4.14      10.52       7.75
C       5.79      12.02      10.80
C       5.00      11.20       9.99
C       4.95      11.43       8.60
C       5.71      12.46       8.03
C       6.52      13.25       8.84
C       6.55      13.05      10.22
H       4.42      10.39      10.42
H       5.67      12.62       6.96
H       7.14      14.03       8.39
H       7.16      13.68      10.86
O       6.47      12.70      12.95
O       5.44      10.68      12.74
O       3.54       9.56       8.33
O       4.11      10.76       6.48
