78

Tb       8.48      12.62       5.25
Tb       2.98       2.76       6.32
H       3.81      10.43       8.86
H       9.88       7.15       9.85
H       9.15       9.51       6.33
H       9.38       5.54       7.95
H       7.48       4.05       7.44
H       4.87       7.45       7.10
H       6.80       8.97       7.53
H       9.31       3.70       0.28
H       1.62       3.25       2.49
H       5.55       3.66       0.83
H       5.29       8.74      10.16
H       7.65       4.95       2.71
H       1.57       8.23       1.71
H       2.31       5.87       5.23
H       2.08       9.84       3.61
H       3.97      11.34       4.12
H       6.59       7.94       4.47
H       4.66       6.42       4.03
H       2.15      11.67      11.28
H       9.84      12.13       9.07
H       5.90      11.72      10.74
H       6.16       6.63       1.41
C       2.53      11.22       6.64
C       2.18      10.05       7.51
C       2.96       9.79       8.65
C       2.59       8.76       9.53
C       1.48       7.97       9.19
C       9.39       8.22       8.05
C       9.74       9.29       7.21
C       8.22       7.36       7.77
C       8.39       5.96       7.77
C       7.33       5.12       7.48
C       6.06       5.65       7.22
C       5.86       7.04       7.28
C       6.94       7.89       7.52
C       4.97       4.72       6.82
C       3.25       8.54      10.83
C       1.70       3.68       0.39
C       2.26       3.43       1.63
C       3.65       3.42       1.81
C       4.47       3.67       0.70
C       4.65       8.55      11.01
C       4.17       3.12       3.17
C       8.93       4.16       4.92
C       9.28       5.32       4.05
C       8.50       5.59       2.92
C       8.87       6.61       2.03
C       9.98       7.41       2.37
C       2.07       7.16       3.51
C       1.72       6.09       4.35
C       3.24       8.03       3.79
C       3.06       9.42       3.79
C       4.13      10.26       4.08
C       5.40       9.74       4.35
C       5.60       8.35       4.28
C       4.52       7.50       4.04
C       6.49      10.66       4.74
C       8.21       6.84       0.73
C       9.75      11.70      11.17
C       9.20      11.95       9.93
C       7.81      11.96       9.75
C       6.98      11.70      10.86
C       6.81       6.82       0.55
C       7.28      12.26       8.39
O      10.44      11.54       5.68
O       3.61      11.84       6.91
O       3.74       4.97       7.02
O       5.30       3.61       6.24
O       3.35       3.32       4.14
O       5.36       2.69       3.31
O       1.03       3.84       5.88
O       7.86       3.53       4.65
O       7.72      10.42       4.54
O       6.16      11.78       5.32
O       8.11      12.06       7.42
O       6.09      12.70       8.25
