42

H       6.23       9.36       9.58
H       6.32      11.40       8.26
H       5.89       6.98       6.07
H       5.82       6.90       4.01
H       5.79       6.89       1.63
H       6.15      12.46       3.66
H       4.30      12.43       7.03
H       4.34      13.53       5.59
H       5.39      15.29       6.94
H       3.92      14.68       7.80
H       5.56      14.17       8.35
H       6.47       7.13      -0.58
H       7.85       8.14       0.03
H       7.70       9.59      -1.95
H       7.88       7.86      -2.45
H       6.26       8.67      -2.55
C       5.97       6.83       8.68
C       6.22      10.45       7.74
C       6.04       8.05       7.88
C       6.00       9.03       1.40
C       5.89       7.84       2.14
C       5.90       7.86       3.53
C       5.99       9.08       4.25
C       6.05      10.29       3.51
C       6.03       9.13       5.68
C       6.13      10.39       6.33
C       6.13      11.58       5.58
C       6.12      11.52       4.19
C       5.98       7.97       6.48
C       6.17       9.29       8.50
C       6.05      10.26       2.09
C       6.11      11.49       1.30
C       4.88      13.23       6.52
C       4.94      14.42       7.46
C       6.89       8.16      -0.54
C       7.20       8.59      -1.96
O       7.09       6.25       8.96
O       4.80       6.40       9.02
O       4.99      12.07       1.01
O       7.28      11.92       0.96
O       6.19      12.81       6.20
O       5.95       9.05       0.01
