54

Zr      14.71      14.80       7.96
Zr      16.46      16.55      10.48
Zr      16.52      13.04      10.45
Zr      14.76      14.75      12.98
Zr      13.00      12.99      10.48
Zr      12.95      16.52      10.52
H      17.49      14.83       8.49
H      11.94      14.76       8.53
H      14.72      17.54      12.47
H      14.78      11.98      12.42
C      16.91      17.14       7.31
C      12.51      12.47       7.30
C      12.47      12.55      13.66
C      17.03      16.99      13.65
C      19.24      14.83      10.52
C      14.68      19.27      10.43
C      10.25      14.73      10.57
C      14.79      10.26      10.39
C      16.92      12.51       7.27
C      17.07      12.57      13.63
C      12.45      16.96      13.72
C      12.48      17.08       7.32
O      16.71      14.81       9.05
O      12.74      14.76       9.08
O      14.77      12.78      11.87
O      14.72      16.75      11.91
O      16.21      14.78      11.51
O      13.27      14.75      11.53
O      14.70      16.25       9.45
O      14.75      13.33       9.43
O      16.06      16.26       6.92
O      13.36      13.35       6.91
O      18.62      15.96      10.53
O      15.82      18.68      10.44
O      17.21      12.25       8.50
O      17.35      12.29      12.42
O      16.19      13.42      14.02
O      16.06      13.38       6.88
O      18.66      13.69      10.50
O      13.54      18.69      10.47
O      17.19      17.37       8.55
O      12.28      12.20       8.54
O      13.35      13.40      14.05
O      16.18      16.11      14.03
O      10.83      13.59      10.55
O      13.65      10.85      10.42
O      12.17      17.23      12.50
O      12.21      17.32       8.56
O      13.34      16.08      14.08
O      13.35      16.22       6.92
O      15.92      10.89      10.41
O      10.84      15.87      10.58
O      17.28      17.30      12.43
O      12.22      12.24      12.44
