182

Lu      -3.31      -1.07       8.73
Lu       0.60       3.50       8.75
Lu       2.55      -2.22       8.72
Lu      14.76      12.58       0.41
Lu      12.88       6.75       0.38
Lu      18.76       7.93       0.41
H       7.68       1.48      14.37
H       8.38      -0.79      10.99
H      -3.67       0.60      13.29
H       5.01       6.26      14.33
H       2.68       6.69      10.94
H       2.29       3.08      13.27
H      10.46       6.22      14.29
H      11.95       8.01      10.87
H       1.43      -3.43      13.28
H       2.67       1.68       6.02
H       4.99       2.12       2.63
H      13.09      12.14       4.96
H      12.65       1.60       5.97
H      11.18       3.40       2.55
H      14.02       5.56       4.98
H       7.74      10.50       6.07
H       7.02       8.23       2.69
H      19.09       9.62       5.00
W      10.11       1.97       8.08
W      10.71       5.52       7.91
W       9.13       4.32      10.84
W       8.01       2.47       5.75
W       4.24       3.84       8.06
W       7.01       1.54       7.91
W       6.74       3.52      10.84
W       5.74       5.39       5.73
W       8.80       8.00       8.05
W       5.43       6.73       7.88
W       7.25       5.99      10.83
W       9.40       5.90       5.75
W       3.42       8.40      16.36
W       0.65       6.12      16.24
W       8.65      12.55       2.52
W      -5.74      -3.63      14.05
W       6.67      -1.04      16.35
W      -5.40      -2.32      16.22
W       0.45       1.38       2.52
W       6.02      -3.14      14.06
W      12.99       6.59      16.38
W       4.71      -3.48      16.23
W      14.01      -0.29       2.52
W      -0.32       7.06      14.07
C      10.18      -0.18      12.02
C       9.78       1.14      13.98
C      11.05      -0.82      11.02
C      10.23       1.89      15.17
C       8.40       1.01      13.70
C       8.79      -0.25      11.85
C      10.69       0.53      13.11
C       2.36       4.83      11.99
C       3.71       4.58      13.95
C       1.37       4.37      11.00
C       4.16       3.82      15.14
C       4.26       5.84      13.67
C       2.96       6.09      11.81
C       2.74       4.06      13.09
C      10.55       9.24      11.96
C       9.67       8.20      13.93
C      10.63      10.33      10.98
C       8.82       8.21      15.14
C      10.47       7.08      13.62
C      11.31       8.08      11.75
C       9.70       9.30      13.07
C       5.33       0.27       3.68
C       3.98       0.01       5.64
C       6.31      -0.19       2.68
C       3.54      -0.74       6.83
C       3.43       1.27       5.36
C       4.72       1.52       3.49
C       4.95      -0.51       4.78
C      12.58       4.62       3.65
C      13.44       3.58       5.62
C      12.51       5.71       2.66
C      14.28       3.58       6.83
C      12.64       2.46       5.31
C      11.81       3.47       3.44
C      13.42       4.68       4.77
C       5.23       8.83       3.73
C       5.64      10.16       5.68
C       4.36       8.18       2.73
C       5.19      10.93       6.86
C       7.02      10.03       5.40
C       6.62       8.76       3.55
C       4.73       9.55       4.82
N       7.91       0.33      12.66
N       3.89       6.60      12.62
N      11.29       7.02      12.56
N       3.79       2.02       4.31
N      11.83       2.40       4.25
N       7.51       9.35       4.36
O      10.90       3.64       7.61
O      11.52       0.84       8.19
O       8.67       0.69       8.32
O       8.81       5.74       7.60
O       9.84       2.62       9.74
O      11.49       1.98      15.44
O      10.53      -1.63      10.14
O      11.30       5.99       6.07
O      10.58       5.12       9.77
O       6.64       3.52       5.22
O       8.20       3.06      12.01
O       9.38       2.50      15.94
O      -3.12      -0.53      10.91
O       9.73       1.75       6.16
O       5.29       2.31       7.60
O       2.56       3.16       8.17
O       3.85       5.73       8.29
O       8.15       3.08       7.60
O       4.93       3.76       9.73
O       3.59       2.71      15.46
O       0.92       5.20      10.11
O       7.12       0.79       6.07
O       6.73       1.87       9.78
O       7.33       6.06       5.22
O       6.12       4.96      12.00
O       5.16       4.25      15.87
O       1.01       3.13      10.92
O       4.24       4.26       6.14
O       6.95       7.84       7.58
O       9.04       9.79       8.15
O      10.62       7.39       8.31
O       6.19       4.97       7.58
O       8.36       7.45       9.72
O       8.19       9.28      15.48
O      11.58      10.33      10.09
O       4.72       7.00       6.04
O       5.83       6.82       9.75
O       9.18       4.19       5.23
O       8.80       5.81      12.00
O       8.68       7.14      15.87
O       2.03      -2.38      10.90
O       9.17       7.76       6.14
O       2.39       6.89      15.91
O       5.11       7.74      16.46
O      -3.84      -3.31      16.61
O      -0.48       7.67      15.92
O      10.46      12.78       1.41
O       4.11      -1.86       7.16
O       6.75       0.65       1.79
O       0.57       5.38      14.38
O       8.67      10.89       1.46
O       8.09      -2.97      13.54
O       1.59       0.36       3.69
O       2.55      -0.31       7.57
O      14.36      12.20       2.60
O       3.44       8.86      14.45
O       8.49      -1.20      15.90
O       6.41       0.75      16.45
O       4.81      -1.64      16.62
O      -6.18      -4.06      15.91
O      14.77       2.83       1.40
O      14.90       4.66       7.20
O      11.54       5.71       1.78
O      -4.73      -2.02      14.36
O       1.87       2.23       1.45
O      13.93       8.78      13.54
O      14.33       1.21       3.69
O      14.43       2.50       7.55
O      13.43       6.61       2.55
O       6.26      -1.27      14.44
O      12.19       8.24      15.92
O      11.60       5.43      16.50
O       6.72       9.69       0.00
O       6.62      -3.29      15.92
O      21.00      11.63       1.42
O      19.37      11.02       7.14
O       4.89       7.36       1.86
O       4.12      -3.05      14.38
O      12.55       0.50       1.46
O       1.05       8.11      13.54
O       7.19      12.08       3.69
O       6.05      11.56       7.62
O      18.54       8.48       2.60
O      13.39       6.34      14.47
O       7.71       4.60       9.44
O      -0.00       0.00       1.13
