21

Pr       6.88      15.31      10.68
Pr       1.23      15.40      10.62
C       4.05      16.82      12.24
C      -0.21      13.69      12.56
C       8.36      15.06      13.30
O      -0.27      13.55      11.26
O       0.36      14.60      13.11
O       7.31      14.38      13.20
O       8.80      15.79      12.36
O       5.03      16.14      11.96
C       9.57      15.88       8.52
O       2.89      16.73      11.76
C       3.32      13.29       7.35
O       8.39      16.01       8.93
O      10.56      15.52       9.18
O       3.08      14.95       8.98
O       1.50      13.47       8.90
O       5.29      13.42      11.12
O       5.93      13.35       9.04
C       5.21      12.97      10.01
C       2.57      13.94       8.49
