21

Pr       1.26       0.93       5.57
Pr      -4.39       0.84       5.62
C      -0.41       3.27       6.23
C      -3.05       2.31       7.76
O      -5.89       2.69       4.98
O      -5.25       1.65       3.13
O       1.69       1.86       3.04
O       3.18       0.45       3.89
O      -0.59       0.11       4.29
O      -2.73      -0.49       4.48
O       2.78       0.23       7.32
O       4.94       0.73       7.06
O      -2.53       1.30       7.26
O      -4.11       2.77       7.34
O      -0.33       2.82       5.13
O       0.31       2.89       7.20
C      -1.57      -0.58       4.00
C      -5.83       2.56       3.69
C       2.74       1.19       2.94
C       3.95       0.36       7.72
C      -2.30       2.96       8.89
