21

O      14.31      21.23      29.80
O      13.68      19.38      30.84
O       6.73      19.29      30.62
O       5.25      20.13      32.03
O       9.01      20.53      32.38
O      11.16      20.72      32.98
Pr       7.17      21.81      31.56
Pr      12.82      21.87      31.64
O      16.89      23.56      32.25
O      14.72      23.30      31.76
O      10.96      23.50      31.19
O      12.54      23.58      29.71
O       8.76      21.37      29.67
O       8.12      23.44      29.59
C      10.00      20.24      33.07
C      14.26      19.93      29.93
C       5.69      19.18      31.30
C      15.71      23.96      32.13
C      10.73      25.14      29.53
C       8.84      22.47      29.22
C      11.48      24.00      30.18
