21

Pr       9.69       5.57      15.31
Pr       4.04       5.62      15.40
C       6.86       4.00      16.82
O       2.54       4.98      13.55
O       3.17       3.13      14.60
O      10.12       3.04      14.38
O      11.60       3.89      15.79
O       7.84       4.29      16.14
O       5.70       4.48      16.73
O      11.20       7.32      16.01
O      13.37       7.06      15.52
O       5.89       7.26      14.95
O       4.31       7.34      13.47
O       8.10       5.13      13.42
O       8.73       7.20      13.35
C       2.60       3.69      13.69
C      11.16       2.94      15.06
C      12.38       7.72      15.88
C       6.13       8.89      13.29
C       8.02       6.23      12.97
C       5.38       7.76      13.94
