26

O      10.85       3.05       3.24
O       8.99       1.97      -3.24
O       9.51       4.96       3.22
O       8.00       4.08      -3.22
C       8.64       4.75      -0.76
C       8.61       4.73       0.76
C       8.54       2.23      -0.47
C      10.85       3.57       0.47
C      10.65       3.29      -1.04
C       8.88       2.26       1.04
C       9.16       3.37      -1.30
C       9.55       3.59       1.30
C       9.91       3.82       2.73
C       8.78       3.17      -2.73
H       7.64       5.04      -1.12
H       8.85       5.74       1.12
H       9.32       5.55      -1.12
H       7.58       4.54       1.12
H       7.50       2.42      -0.55
H      11.20       4.57       0.55
H       7.96       2.15       1.66
H      11.20       4.04      -1.66
H      11.03       2.28      -1.29
H       9.58       1.44       1.29
H      11.57       2.86       0.89
H       8.80       1.25      -0.89
