30

C      12.48       7.52       6.77
H      13.30       6.44      11.17
C      13.25       9.25       8.42
H      14.33       9.10       8.18
C      12.51       7.94       8.20
H      12.85      10.06       7.76
C      12.59       8.45      10.77
H      12.32      10.36      10.01
C      13.58       7.29      10.50
H      17.22       7.17       9.71
C      13.08       9.63       9.90
O      11.35       7.14       6.21
O      13.66       7.34       6.29
C      12.56       8.88      12.17
O      11.42       9.34      12.65
O      13.73       9.14      12.60
O      15.78       8.92      11.28
O      15.82       6.61      11.87
O      16.28       7.29       9.40
S      15.39       7.57      10.80
C      11.09       8.12       8.79
C      11.16       8.04      10.31
C      13.28       6.87       9.04
H      10.32       7.46       8.38
H      13.98      10.08      10.28
H      14.17       6.50       8.52
H      10.79       9.13       8.54
H      10.34       8.65      10.73
H      10.96       7.01      10.66
H      12.56       6.08       9.16
