44

Cu       5.01       5.53       8.87
Cu       2.64       6.30       6.61
Cu       0.22       8.32       7.11
Cu       2.58       7.55       9.37
H       4.52       7.70       7.62
H       5.60       1.57       4.42
H       4.10       1.02       4.85
H       2.84       3.32       4.87
H       6.33       2.80       7.20
H       0.71       6.15       8.36
H      -0.38      12.28      11.56
H       1.12      12.83      11.12
H       2.39      10.53      11.11
H      -1.11      11.05       8.77
C       5.17       7.89      10.69
C       3.61       3.48       5.61
C       5.42       3.22       6.81
C       7.21       4.15       9.70
C       2.20       4.92      10.29
C       0.05       5.96       5.29
C       1.62      10.37      10.36
C      -0.19      10.63       9.17
C      -1.98       9.70       6.27
C       3.02       8.93       5.69
N       4.84       4.34       7.19
N       3.69       4.50       6.45
N       4.67       2.65       5.82
N       4.97       1.41       5.22
N       0.38       9.51       8.79
N       1.53       9.35       9.53
N       0.55      11.20      10.16
N       0.25      12.44      10.76
O       3.97       6.93       7.93
O       3.97       8.30      10.53
O       5.72       6.86      10.18
O       3.10       4.68       9.45
O       1.84       6.07      10.72
O       5.94       4.16       9.98
O       1.26       6.92       8.04
O       1.25       5.55       5.45
O      -0.49       6.99       5.79
O       2.13       9.17       6.53
O       3.39       7.78       5.26
O      -0.72       9.69       6.00
