64

La       9.92       9.99       7.02
La      10.17       7.38      13.41
La      12.77      13.17       5.78
La       7.32       4.23      12.18
C      10.42       7.88       9.77
C      13.48      10.33       7.06
C       3.98       3.63      12.19
C       6.92       6.50       9.79
C      11.86       8.00       9.34
C      13.32       9.16       7.99
C       4.05       4.82      11.25
C       5.48       6.22      10.08
C       9.66       9.48       3.38
C       6.62       7.06      13.48
C      16.11      13.76       5.79
C      13.17      10.88       3.41
C       8.23       9.37       2.95
C       6.77       8.22       1.60
C      16.04      12.57       4.84
C      14.61      11.16       3.68
C      12.27      15.29       3.03
C       9.22      12.84       5.73
C      13.50       7.99      13.39
C      10.57       5.11      15.80
C      10.84      15.16       3.45
C       9.38      14.00       4.81
C      13.44       6.79      14.34
C      12.00       5.39      15.51
C      13.03      13.69       9.41
C      10.87       4.55      12.11
C       6.59       9.40       7.00
C       9.53      12.29       9.39
C      14.47      13.80       9.84
C      10.70       3.38      11.19
C       6.66      10.60       7.95
C       8.09      12.00       9.11
N      12.05       8.87       8.33
N       5.29       5.15      10.86
N       8.04       8.51       1.94
N      14.80      12.24       4.46
N      10.65      14.30       4.47
N      12.19       6.46      14.73
N      14.66      14.66      10.86
N       7.90      10.93       8.33
O       9.56       8.22       8.87
O      10.12       7.50      10.92
O      12.41      10.72       6.44
O       5.15       3.27      12.66
O       7.79       5.65      10.09
O      10.53       9.13       2.49
O       9.96       9.86       4.54
O       7.69       6.68      12.85
O      14.94      14.14       6.23
O      12.30      11.73       3.70
O      13.13      14.94       3.93
O      12.58      15.67       1.87
O      10.29      12.45       6.36
O      12.33       8.34      12.93
O       9.69       5.96      15.50
O      12.17      14.04      10.30
O      12.74      13.31       8.25
O       9.79       4.93      12.74
O       7.76       9.03       6.57
O      10.40      11.43       9.10
