21

H      15.02      11.63      21.43
H      14.09      10.35      19.54
H      12.19       8.76      19.96
H      11.30       8.46      22.28
H      14.14      13.13      29.10
H      15.72      13.29      28.28
H      15.37      11.88      29.31
C      12.66       9.86      23.16
O      12.12       9.62      24.36
O      15.29      12.42      23.70
C      14.21      10.93      21.60
C      13.67      10.22      20.54
C      12.62       9.33      20.78
C      12.12       9.15      22.07
C      14.36      11.55      23.99
C      14.35      11.84      27.43
C      14.95      12.58      28.58
O      13.48      10.91      27.68
C      13.73      10.78      22.92
N      14.00      11.36      25.27
N      14.70      12.14      26.20
