21

O      18.62      24.88      15.03
O      15.36      23.27      12.79
O      16.93      27.61      12.99
H      16.05      21.25      13.91
H      17.47      19.75      15.26
H      19.48      20.71      16.44
H      19.96      23.14      16.30
H      14.96      27.25      10.35
H      16.04      28.62      10.77
H      14.51      28.40      11.63
C      18.29      23.59      15.03
C      17.18      23.04      14.33
C      16.90      21.65      14.44
C      17.71      20.81      15.20
C      18.83      21.35      15.86
C      19.11      22.71      15.78
C      16.34      23.83      13.43
N      16.61      25.13      13.24
N      15.83      25.74      12.25
C      16.07      27.03      12.18
C      15.35      27.87      11.17
