21

N      18.48      10.97      17.09
N      19.18      11.90      16.31
C      17.14       8.88      18.61
C      18.21       8.63      17.69
C      18.68       7.31      17.54
C      18.14       6.25      18.25
C      17.08       6.50      19.15
C      16.59       7.79      19.32
C      18.85       9.69      16.91
C      18.83      13.14      16.61
C      19.42      14.29      15.86
O      16.60      10.08      18.83
O      19.78       9.40      16.05
O      17.96      13.39      17.55
H      19.49       7.12      16.85
H      18.55       5.25      18.13
H      16.65       5.69      19.72
H      15.78       8.01      20.01
H      18.62      14.80      15.32
H      20.19      13.98      15.15
H      19.86      15.01      16.57
