21

N      17.33      28.40      16.31
N      16.78      27.15      15.97
O      17.54      30.79      17.53
O      19.01      27.81      14.87
O      15.29      27.75      17.61
H      20.79      29.38      14.64
H      22.09      31.48      14.98
H      19.00      32.87      17.67
H      21.17      33.25      16.49
H      14.95      25.09      17.53
H      15.49      24.95      15.83
H      13.96      25.78      16.22
C      18.67      30.92      16.82
C      19.19      29.93      15.95
C      20.42      30.16      15.29
C      21.14      31.33      15.48
C      20.62      32.32      16.33
C      19.41      32.12      16.99
C      18.50      28.66      15.69
C      15.73      26.89      16.71
C      15.00      25.60      16.56
