21

H      19.40      28.06       0.89
H      18.10      27.73       3.00
H      19.03      26.25       4.78
H      21.22      25.10       4.43
H      25.23      25.16      -3.37
H      24.70      26.86      -3.52
H      26.23      26.46      -2.70
C      21.54      25.93       2.47
C      21.02      26.79       1.47
C      19.78      27.42       1.68
C      19.06      27.24       2.86
C      19.59      26.41       3.86
C      20.81      25.76       3.67
C      21.71      27.05       0.20
C      24.47      26.00      -1.57
C      25.19      26.14      -2.87
O      22.67      25.23       2.35
O      21.20      27.88      -0.64
O      24.90      25.11      -0.70
N      22.88      26.42      -0.06
N      23.42      26.75      -1.32
