21

H      27.49       8.94      24.65
H      25.61       8.52      23.04
H      24.72       6.20      22.74
H      27.52      -0.62      27.43
H      29.09       0.20      27.63
H      28.77      -0.83      26.20
N      27.40       3.21      25.66
N      28.09       2.28      26.45
C      26.08       5.31      24.15
C      27.14       5.56      25.07
C      27.62       6.87      25.23
C      27.08       7.94      24.52
C      26.03       7.69      23.62
C      25.53       6.41      23.44
C      27.77       4.49      25.85
C      27.75       1.05      26.15
C      28.33      -0.11      26.90
O      25.54       4.12      23.92
O      28.70       4.78      26.72
O      26.89       0.79      25.20
H      28.43       7.06      25.93
