72

Co       8.51       6.30       5.32
Mo       6.46       7.63       2.61
Mo      10.93       8.37      10.12
Mo       6.86       9.92       1.32
Mo      10.72       5.01       8.18
Mo       6.15       4.14       0.37
Mo      10.13       2.85       9.05
H       8.54       7.42       8.30
H       7.12       9.02       4.80
H       6.31      11.03       5.94
H       6.61      11.28       8.42
H      10.22       6.66       2.73
H      10.37       8.37       6.48
H      12.32       9.75       5.89
H      13.34       9.48       3.58
H      10.00       8.57       1.08
H      14.73      10.28      10.07
H       8.46       5.17       2.30
H       9.88       3.57       5.79
H      10.71       1.56       4.63
H      10.39       1.32       2.15
H       6.78       5.92       7.85
H       6.65       4.24       4.10
H       4.69       2.85       4.67
H       3.70       3.10       6.97
H       7.01       4.01       9.51
H       2.25       2.35       0.50
C       7.83       9.43       9.98
C       7.57       9.34       8.56
C       8.04       8.24       7.80
C       7.24       9.11       5.86
C       6.77      10.25       6.51
C       6.91      10.38       7.89
C       3.01       7.85       1.63
C      11.81       8.09       2.98
C      10.69       7.35       3.41
C      10.78       8.31       5.49
C      11.90       9.08       5.16
C      12.43       8.97       3.88
C       9.13       3.17       0.58
C       9.42       3.25       1.99
C       8.97       4.34       2.77
C       9.77       3.47       4.73
C      10.24       2.34       4.05
C      10.08       2.22       2.67
C      13.96       4.70       8.94
C       5.20       4.48       7.61
C       6.32       5.21       7.18
C       6.24       4.29       5.08
C       5.11       3.52       5.40
C       4.59       3.62       6.69
N       9.05       9.24      10.56
N       4.29       7.61       1.35
N      11.68       7.88       0.45
N      10.30       7.90       0.34
N       7.87       8.07       6.47
N      10.18       7.45       4.65
N       7.93       3.45       0.01
N      12.65       4.93       9.20
N       5.28       4.71      10.13
N       6.69       4.74      10.21
N       9.14       4.48       4.09
N       6.84       5.12       5.95
O       6.48       5.78       1.47
O       5.83       9.42       3.05
O       7.37       6.86       3.89
O       7.04       8.08       0.67
O      10.47       6.83       9.12
O      11.12       3.18       7.44
O       9.63       5.61       6.88
O       9.89       4.46      10.11
O       9.31       1.82      10.47
