24

Tb       5.94       6.99       0.32
Tb       2.05       7.85      -0.31
C       5.29       5.46       2.48
C       4.86       4.62       3.66
C       4.94       9.52       1.03
C       4.43      10.87       1.45
C       9.03       6.42       2.00
C       2.69       9.39      -2.47
C       3.11      10.24      -3.65
C       3.04       5.32      -1.03
C       3.55       3.97      -1.45
C       6.95       8.41      -1.99
O       5.39       6.73       2.60
O       5.57       4.89       1.36
O       6.18       9.25       1.07
O       4.12       8.61       0.60
O       8.13       6.78       1.14
O       2.20       6.87       1.88
O       2.60       8.12      -2.60
O       2.40       9.95      -1.35
O       1.80       5.59      -1.07
O       3.86       6.23      -0.60
O       7.86       8.06      -1.14
O       5.78       7.96      -1.88
