28

H       1.29       4.26       9.59
H       1.18       1.11       6.07
H       1.26       2.21       8.23
H       1.04       6.67       6.08
H       0.88       4.64       0.35
H       1.00       6.75       4.01
H       0.90       6.74       1.61
H       1.09       1.18       3.67
C       1.21       6.80       8.69
C       1.21       3.17       7.73
C       1.16       5.58       7.89
C       0.93       4.61       1.43
C       0.94       5.80       2.14
C       1.00       5.79       3.53
C       1.04       4.57       4.26
C       1.04       3.35       3.51
C       1.09       4.52       5.68
C       1.15       3.25       6.33
C       1.14       2.07       5.58
C       1.09       2.12       4.20
C       1.08       5.68       6.50
C       1.22       4.33       8.51
C       0.98       3.38       2.10
C       0.93       2.16       1.30
O       0.09       7.39       8.97
O       2.38       7.24       9.02
O       2.05       1.57       1.01
O      -0.24       1.73       0.96
