28

H       4.26      13.63      10.40
H       4.08      16.77      13.91
H       4.07      15.66      11.76
H       4.96      11.27      13.88
H       5.06      13.31      19.61
H       5.08      11.20      15.94
H       5.26      11.22      18.34
H       4.28      16.71      16.32
C       4.71      11.12      11.28
C       4.27      14.72      12.25
C       4.63      12.34      12.08
C       4.97      13.33      18.53
C       5.08      12.15      17.81
C       4.98      12.15      16.42
C       4.75      13.36      15.71
C       4.62      14.57      16.46
C       4.64      13.40      14.29
C       4.39      14.65      13.64
C       4.27      15.81      14.40
C       4.38      15.78      15.78
C       4.77      12.25      13.47
C       4.38      13.57      11.47
C       4.73      14.54      17.87
C       4.66      15.76      18.67
O       3.59      10.53      11.00
O       5.88      10.68      10.94
O       3.49      16.20      19.01
O       5.78      16.35      18.95
