14

C       4.57      12.55       2.27
O       5.84       9.88       8.25
O       3.55       9.72       8.29
H       6.63      12.04       3.94
H       3.60      11.58       3.97
C       5.67      11.71       4.34
C       4.57      11.90       3.60
C       5.69      11.07       5.69
H       6.67      10.91       6.12
C       4.59      10.70       6.39
O       5.69      12.88       1.70
O       3.40      12.72       1.73
H       3.60      10.87       5.99
C       4.67      10.06       7.72
