57

C       5.30       1.70       8.68
C       6.30       1.55       7.76
C       6.54       2.58       6.86
C       5.73       3.70       6.92
C       4.76       3.73       7.90
C       7.88       3.48       5.10
C       9.55       4.18       3.37
C       9.88       6.97       0.25
C       9.82       6.01       1.27
C       8.62       5.66       1.74
C       7.56       6.33       1.24
C       7.72       7.18       0.18
C      12.82       4.34       8.68
C      11.82       4.49       7.76
C      11.58       3.45       6.86
C      12.39       2.34       6.92
C      13.36       2.30       7.90
C      10.24       2.56       5.10
C       8.56       1.86       3.37
C       8.24      -0.93       0.25
C       8.30       0.03       1.27
C       9.50       0.38       1.74
C      10.56      -0.29       1.24
C      10.40      -1.14       0.18
C       9.06       3.02       4.26
H       5.14       0.99       9.26
H       6.81       0.78       7.74
H       5.84       4.40       6.32
H       4.22       4.49       7.94
H       7.11       3.68       4.53
H       8.11       4.28       5.60
H      10.19       3.85       2.72
H       9.99       4.85       3.92
H      10.72       7.22      -0.06
H      10.60       5.63       1.61
H       6.72       6.21       1.62
H       6.95       7.52      -0.22
H      12.98       5.05       9.26
H      11.31       5.26       7.74
H      12.28       1.64       6.32
H      13.90       1.54       7.94
H      11.00       2.36       4.53
H      10.01       1.76       5.60
H       7.93       2.19       2.72
H       8.13       1.18       3.92
H       7.40      -1.18      -0.06
H       7.52       0.41       1.61
H      11.40      -0.17       1.62
H      11.17      -1.48      -0.22
N       4.52       2.79       8.79
N       8.85       7.53      -0.30
N      13.60       3.25       8.79
N       9.27      -1.49      -0.30
O       7.56       2.41       6.00
O       8.40       4.73       2.71
O      10.56       3.63       6.00
O       9.72       1.31       2.71
