57

C       4.34       5.30       3.59
C       4.49       6.30       4.51
C       3.45       6.54       5.41
C       2.34       5.73       5.35
C       2.30       4.76       4.37
C       2.56       7.88       7.17
C       1.86       9.55       8.90
C      -0.93       9.88      12.02
C       0.03       9.82      11.00
C       0.38       8.62      10.53
C      -0.29       7.56      11.03
C      -1.14       7.72      12.09
C       1.70      12.82       3.59
C       1.55      11.82       4.51
C       2.58      11.58       5.41
C       3.70      12.39       5.35
C       3.73      13.36       4.37
C       3.48      10.24       7.17
C       4.18       8.56       8.90
C       6.97       8.24      12.02
C       6.01       8.30      11.00
C       5.66       9.50      10.53
C       6.33      10.56      11.03
C       7.18      10.40      12.09
H       5.05       5.14       3.01
H       5.26       6.81       4.53
H       1.64       5.84       5.95
H       1.54       4.22       4.33
H       2.36       7.11       7.74
H       1.76       8.11       6.67
H       2.19      10.19       9.55
H       1.18       9.99       8.35
H      -1.18      10.72      12.33
H       0.41      10.60      10.65
H      -0.17       6.72      10.65
H      -1.48       6.95      12.49
H       0.99      12.98       3.01
H       0.78      11.31       4.53
H       4.40      12.28       5.95
H       4.49      13.90       4.33
H       3.68      11.00       7.74
H       4.28      10.01       6.67
H       3.85       7.93       9.55
H       4.85       8.13       8.35
H       7.22       7.40      12.33
C       3.02       9.06       8.01
H       5.63       7.52      10.65
H       6.21      11.40      10.65
H       7.52      11.17      12.49
N       3.25       4.52       3.48
N      -1.49       8.85      12.57
N       2.79      13.60       3.48
N       7.53       9.27      12.57
O       3.63       7.56       6.27
O       1.31       8.40       9.56
O       2.41      10.56       6.27
O       4.73       9.72       9.56
