18

H       7.64      10.66       6.10
H       6.56      13.41       6.96
H       5.85      12.38       5.71
H       8.08      12.53       4.43
H       8.65      13.66       5.69
H       6.73       9.87       8.29
H       6.10      11.49       8.63
H       5.43      10.56       7.30
O       8.77      12.90       8.11
O       9.53      10.79       7.73
O       7.13      14.37       3.13
O       6.69      15.42       5.10
C       8.67      11.72       7.63
C       7.38      11.41       6.87
C       6.80      12.66       6.19
C       7.76      13.28       5.16
C       7.14      14.44       4.41
C       6.36      10.79       7.83
