132

Ca       4.99       5.42      15.19
Ca      10.35       0.95       6.44
Ca       3.38       7.32       2.31
Ca      -1.98      11.79      11.05
Zn       6.06       4.52       1.05
Zn       9.28       1.85       9.80
Zn       2.31       8.22      16.45
Zn      -0.90      10.89       7.70
H       0.18       9.98       3.56
H       1.66       1.03       3.29
H       0.61      12.01       0.13
H      -1.05       4.97       0.27
H       9.50       2.84       0.87
H      -0.04       1.21       1.19
H       1.23       9.13      12.31
H       2.53       5.34      12.04
H       0.79       7.10       8.87
H       5.24       1.40       9.02
H       5.84       3.54       9.62
H       4.23       5.17       9.94
H       8.20       2.76      13.94
H       6.72      11.71      14.20
H       7.76       0.73      17.37
H       9.43       7.77      17.23
H      -1.13       9.91      16.62
H       8.42      11.54      16.30
H       7.15       3.61       5.19
H       5.85       7.40       5.46
H       7.58       5.64       8.62
H       3.14      11.35       8.48
H       2.53       9.21       7.87
H       4.15       7.58       7.55
C       0.49      10.80       1.74
C       0.06      10.76       3.06
C      -0.54      11.86       3.65
C       2.07       0.29       2.91
C       2.53       0.33       1.60
C       0.33      11.97       1.01
C       1.19       9.62       1.13
C      -0.95      11.81       5.10
C       1.54       2.41       0.82
C       1.93       3.70       0.49
C       0.95       4.67       0.29
C      -0.40       4.33       0.42
C      10.40       3.05       0.77
C       0.21       2.07       0.97
C       3.39       3.98       0.24
C       1.33       6.05      17.34
C       0.92       8.31      10.49
C       1.35       8.36      11.81
C       1.94       7.25      12.39
C       2.12       6.08      11.66
C       1.66       6.04      10.35
C       1.08       7.14       9.76
C       0.21       9.50       9.87
C       2.36       7.30      13.85
C       2.65       3.96       9.57
C       2.25       2.68       9.24
C       3.24       1.70       9.03
C       4.58       2.04       9.17
C       4.94       3.32       9.52
C       3.98       4.30       9.71
C       0.80       2.39       8.99
C       2.85       0.32       8.59
C       7.89       1.94      15.75
C       8.32       1.99      14.43
C       8.91       0.88      13.85
C       6.30      12.45      14.58
C       5.85      12.41      15.89
C       8.05       0.77      16.48
C       7.18       3.12      16.37
C       9.33       0.93      12.39
C       6.84      10.33      16.67
C       6.44       9.05      17.00
C       7.43       8.08      17.21
C       8.77       8.41      17.08
C      -2.03       9.69      16.72
C       8.17      10.67      16.53
C       4.98       8.76      17.25
C       7.04       6.69       0.16
C       7.46       4.43       7.00
C       7.03       4.38       5.69
C       6.43       5.49       5.10
C       6.26       6.66       5.84
C       6.72       6.70       7.14
C       7.30       5.60       7.74
C       8.16       3.25       7.62
C       6.02       5.44       3.65
C       5.73       8.78       7.92
C       6.12      10.07       8.26
C       5.14      11.04       8.46
C       3.79      10.70       8.33
C       3.43       9.42       7.98
C       4.39       8.44       7.78
C       7.58      10.35       8.50
C       5.52      12.42       8.90
O       1.44       9.70      17.38
O       1.49       8.66       1.86
O      -0.53      10.82       5.76
O      -1.65      12.73       5.57
O       2.57       1.49       0.84
O       0.56       6.72      16.66
O       2.49       6.48       0.16
O       3.78       4.03      16.57
O       4.12       4.14       1.26
O      -0.03       9.41       8.63
O      -0.09      10.45      10.61
O       1.93       8.29      14.51
O       3.06       6.38      14.32
O       1.62       4.89       9.58
O       0.85      12.39       7.92
O      -1.09      12.63       8.91
O       0.40       2.35       7.82
O       0.07       2.23      10.00
O       6.94       3.04       0.12
O       6.88       4.08      15.63
O       8.90       1.92      11.74
O      10.03       0.01      11.93
O       5.81      11.26      16.66
O       7.82       6.02       0.83
O       5.88       6.26      17.33
O       4.59       8.72       0.93
O       4.25       8.60      16.24
O       8.41       3.33       8.86
O       8.46       2.29       6.88
O       6.44       4.45       2.99
O       5.32       6.36       3.18
O       6.75       7.86       7.91
O       7.53       0.35       9.58
O       9.46       0.11       8.59
O       7.97      10.40       9.67
O       8.31      10.51       7.49
