34

C      24.73      21.64       5.12
C      28.87      22.04      -4.67
F      30.25      24.03      -1.41
F      29.42      23.29       1.07
F      28.17      18.98      -0.64
F      29.13      19.67      -3.08
C      29.99      22.33      -3.72
C      29.63      21.89      -2.31
C      29.74      22.79      -1.23
C      29.32      22.40       0.05
C      28.74      21.14       0.26
C      28.19      20.76       1.62
C      26.95      21.53       2.05
C      26.39      21.23       3.30
C      25.31      21.96       3.80
C      24.77      23.01       3.04
C      25.29      23.30       1.77
C      26.36      22.55       1.27
C      28.69      20.22      -0.81
C      29.17      20.59      -2.07
N      24.73      24.37       0.99
O      24.42      22.54       5.97
O      24.50      20.44       5.49
O      29.05      21.50      -5.80
O      27.65      22.27      -4.42
H      30.20      23.42      -3.76
H      30.90      21.80      -4.05
H      28.99      20.92       2.37
H      27.95      19.68       1.65
H      26.82      20.44       3.91
H      23.93      23.59       3.42
H      25.14      24.62       0.07
H      23.92      24.92       1.35
H      26.73      22.78       0.28
