34

C       5.03      26.86       3.33
C       6.22      27.76       8.23
C       4.12      27.11       4.50
F       6.95      29.88       7.38
F       5.41      25.64       9.01
F       4.16      25.18       6.64
F       5.63      29.47       5.05
C       4.89      27.30       5.78
C       5.61      28.50       6.00
C       6.28      28.71       7.20
C       5.60      29.32      12.91
C       4.47      30.05      12.52
C       4.10      30.13      11.17
C       4.87      29.48      10.21
C       5.50      26.57       8.02
C       4.85      26.34       6.81
C       6.89      28.03       9.56
C       6.00      28.72      10.58
C       6.36      28.66      11.94
N       2.96      30.89      10.79
O       7.00      28.61      14.75
O       5.34      29.82      15.26
H       3.40      26.27       4.58
H       3.52      28.02       4.29
H       7.80      28.65       9.41
H       7.26      27.07       9.98
H       7.24      28.10      12.23
H       3.87      30.56      13.27
H       2.71      31.00       9.78
H       2.35      31.35      11.50
H       4.59      29.57       9.17
O       6.06      27.55       3.09
O       4.81      25.98       2.45
C       5.99      29.26      14.34
