34

F       5.40      23.99      18.90
F       3.05      23.52      20.19
F       0.63      25.14      16.38
C      -0.26      25.15      23.89
F       2.98      25.62      15.09
H       6.34      24.43      16.62
H       5.43      24.95      15.18
H       0.48      23.04      19.44
H      -0.37      24.16      18.36
N       0.38      28.80      20.61
H      -0.04      27.70      23.00
H       0.58      29.13      19.64
H       0.29      29.51      21.36
H       0.56      26.80      18.85
H       0.02      23.61      21.69
O       6.97      27.04      16.01
O       5.28      27.33      17.26
C       5.53      25.10      16.27
C       4.23      24.77      16.96
C       4.23      24.25      18.26
C       3.02      24.01      18.93
C       1.80      24.29      18.30
C       0.50      24.08      19.04
C       0.33      25.09      20.15
C       0.09      24.66      21.47
C      -0.04      25.60      22.50
C       0.06      26.97      22.21
C       0.27      27.40      20.90
C       0.40      26.46      19.87
C       1.80      24.82      17.00
C       3.01      25.07      16.33
O      -0.05      25.90      24.90
O      -0.68      23.98      24.18
C       5.93      26.52      16.53
