18

O       4.77      17.23       5.39
O       5.36      18.15       7.38
O       4.53      23.25       7.89
O       2.91      24.02       6.48
C       3.04      20.74       4.07
C       3.63      19.55       4.51
C       4.24      19.50       5.77
C       4.84      18.21       6.22
C       4.31      20.65       6.57
C       3.71      21.84       6.13
C       3.74      23.12       6.92
C       3.06      21.87       4.89
H       3.62      18.66       3.88
H       4.81      20.62       7.53
H       2.58      22.78       4.56
O       2.62      19.95       1.83
O       1.56      21.79       2.50
C       2.39      20.80       2.74
