18

C       8.25      17.28       6.07
C       8.90      17.34       4.74
H       9.49      19.41       4.93
H      10.67      17.46       1.27
H       8.43      15.29       4.23
C       9.50      18.52       4.30
C      10.11      18.57       3.04
C      10.71      19.86       2.58
C      10.17      17.42       2.23
C       9.57      16.23       2.68
O       8.78      14.05       2.31
C       9.60      14.96       1.88
C       8.91      16.21       3.91
O       7.44      16.28       6.30
O       8.45      18.13       6.97
O      10.67      20.84       3.42
O      11.21      19.91       1.41
O      10.38      14.85       0.90
