18

C       8.68      14.26       9.31
C       8.13      13.19       8.45
C       7.83      13.41       7.10
C       7.22      12.41       6.34
C       6.88      12.73       4.92
C       6.93      11.16       6.91
C       7.22      10.93       8.27
C       6.77       9.73       9.02
H       8.07      14.38       6.67
H       6.45      10.38       6.32
H       8.04      11.79      10.07
C       7.83      11.95       9.02
O       8.85      15.47       8.88
O       8.96      13.99      10.54
O       6.29      13.84       4.64
O       7.22      11.89       4.01
O       6.12       8.79       8.42
O       7.01       9.73      10.28
