32

H       3.35       2.22      13.37
H       5.70       5.17      13.16
H       7.03       1.09      14.81
H       8.21       2.91      14.30
H       7.00       5.84      15.15
H       7.79       5.16      12.59
H       7.07       1.51      11.46
H       3.85       4.27      16.68
H       3.56       5.05      13.38
C       4.19       3.14      15.12
C       5.70       2.80      15.33
C       5.27       3.07      12.76
C       5.92       1.68      13.02
C       3.92       3.14      13.59
C       4.90       3.23      11.34
C       6.00       2.54      16.76
C       6.60       3.97      14.74
C       6.23       4.20      13.25
C       6.02       1.47      14.54
O       6.88       3.26      17.31
O       5.58       1.45      17.27
O       5.05       4.38      10.83
O       4.11       2.36      10.88
O       7.97       3.66      14.90
O       6.35       5.16      15.46
O       7.38       4.27      12.43
O       7.20       1.59      12.44
O       3.87       4.39      15.69
O       3.08       4.21      13.20
F       5.11       0.49      14.91
F       5.12       0.66      12.48
F       3.38       2.18      15.72
