808

Zn      21.83       0.72      22.98
Zn      24.34       0.01      21.43
Zn      21.84      -1.71      21.28
Zn      21.83       0.98      20.02
Zn       6.79      19.52      12.06
Zn       6.82      19.26       9.09
Zn       9.29      18.52      10.68
Zn       6.77      16.83      10.80
Zn      24.02      28.53       4.47
Zn      22.22      26.14       4.61
Zn      22.98      27.61       7.13
Zn      21.12      28.88       5.13
Zn       6.06      10.39      26.99
Zn       7.15       7.63      27.51
Zn       7.89       9.11      24.99
Zn       8.96      10.03      27.64
Zn      21.08      18.19      22.45
Zn      22.91      17.10      20.34
Zn      22.15      20.01      20.33
Zn      23.97      18.93      22.46
Zn      21.07       8.51       4.53
Zn      22.90      10.89       4.65
Zn      22.12       9.45       7.18
Zn      23.96       8.13       5.19
Zn       8.81       0.73      11.83
Zn       6.82       1.38       9.73
Zn       8.22      -1.33       9.71
Zn       6.26      -0.68      11.84
Zn       8.93     -10.41      26.96
Zn       7.88      -7.65      27.49
Zn       7.15      -9.09      24.95
Zn       6.04     -10.02      27.57
H      22.51     -16.40      30.89
H      22.49      -0.02       2.49
H      22.52      16.38      30.83
H       7.52      34.92       1.30
H       7.40       2.17       1.25
H       7.43      18.54      29.68
H      22.59      20.68      11.94
H      22.54      16.39      11.94
H      22.58      18.53       8.22
H       7.56       0.01      23.92
H       7.66      -2.13      20.19
H       7.47       2.15      20.19
H      25.47       4.76      29.23
H      29.02       5.02      26.77
H      28.82       7.17      30.44
H      16.00       7.24      23.13
H      19.65       9.11      21.81
H      16.34      11.52      23.16
H      29.02       2.26      14.47
H      25.45       4.46      13.41
H      28.78       4.35      10.74
H      10.46      23.34       2.93
H      14.05      23.55       5.32
H      13.80      25.70       1.61
H      13.76      22.77      21.43
H      10.40      22.85      18.73
H      13.95      20.65      17.73
H       1.08      25.84       8.87
H       4.77      27.67      10.11
H       1.44      30.11       8.82
H      16.30      -4.33      10.62
H      19.67      -4.34      13.33
H      16.10      -2.21      14.33
H      19.64      -4.91      29.12
H      15.99      -5.11      26.83
H      16.32      -7.29      30.51
H      29.04      -7.16      23.04
H      25.44      -9.15      21.65
H      28.76     -11.43      23.06
H      13.93      11.32       8.90
H      10.29       9.42      10.18
H      13.64       7.05       8.87
H       1.28      14.32      21.52
H       4.64      14.32      18.79
H       1.02      16.41      17.81
H       4.61      13.62       2.95
H       1.00      13.40       5.30
H       1.26      11.26       1.63
H      24.44       4.43      27.42
H      28.30       3.17      25.88
H      27.16       1.83      24.20
H      23.36       3.03      25.83
H      19.30       7.13      20.24
H      17.87       5.85      24.10
H      18.96       3.68      23.78
H      20.37       4.95      19.91
H      28.29       2.38      16.50
H      24.43       3.06      14.63
H      23.35       2.34      16.62
H      27.15       1.55      18.48
H       9.52      23.32       4.99
H      13.28      21.43       5.98
H      12.13      20.07       7.68
H       8.39      21.93       6.61
H      17.98      -0.68      14.95
H      19.37      -4.67      15.85
H      20.43      -3.83      17.90
H      19.05       0.15      16.99
H      19.30      -2.56      28.19
H      17.86      -5.25      25.14
H      18.96      -3.89      23.43
H      20.38      -1.18      26.47
H      24.44      -7.39      22.27
H      28.30      -5.45      21.91
H      27.17      -3.32      21.61
H      23.36      -5.31      21.87
H      13.21      21.14      15.58
H       9.43      21.13      17.66
H       8.32      20.41      15.64
H      12.08      20.34      13.55
H       2.93      24.40       7.89
H       4.40      25.74      11.71
H       5.42      23.54      12.09
H       3.96      22.21       8.25
H       9.39      11.24       9.15
H      13.16      12.93      10.42
H      12.05      15.09      10.81
H       8.29      13.35       9.61
H       4.32      13.94      16.29
H       2.88      17.92      17.10
H       3.95      18.73      15.05
H       5.38      14.74      14.22
H       4.71      15.66       3.87
H       2.46      13.63       6.96
H       3.53      15.01       8.64
H       5.78      17.03       5.58
H      20.77      17.29      29.00
H      24.28      19.79      29.02
H      24.29      19.79      26.56
H      20.74      17.33      26.55
H      23.71      14.92      32.08
H      21.32      35.24       3.11
H      21.32      33.12       4.31
H      23.72      31.35       1.20
H      24.24       2.01       2.66
H      20.75       3.29       0.49
H      20.74       5.41       1.74
H      24.26       4.14       3.89
H       8.74      33.48       0.04
H       6.24      16.72      29.08
H       6.24      14.61      27.88
H       8.74      12.85      30.90
H       6.43       1.91       3.19
H       8.54      35.19       3.20
H       8.52      -1.87       5.62
H       6.48       1.92       5.61
H       9.18     -16.51      29.54
H       5.63     -15.23      31.63
H       5.65     -13.12      30.37
H       9.22     -14.39      28.31
H      25.00       4.73      31.34
H      27.30       8.42      31.32
H      26.14      27.67       1.19
H      23.79      24.06       1.19
H      20.19      -6.22      12.30
H      17.81      -4.48       9.11
H      18.98      31.25       7.51
H      21.41      29.56      10.64
H      18.15      12.70      24.04
H      19.89      11.09      20.43
H      21.11      13.19      20.08
H      19.33      14.79      23.67
H      26.99       4.18       9.25
H      25.24       6.57      12.39
H      23.99       7.85      10.71
H      25.78       5.46       7.59
H      10.22      23.17       0.58
H      12.01      27.07       1.00
H      10.81       9.30      31.14
H       8.97       5.42      30.72
H       2.81      14.19      23.03
H       5.17      12.45      19.84
H       6.37      11.12      21.49
H       3.96      12.83      24.63
H      25.22     -11.08      20.32
H      26.96     -12.64      23.95
H      25.77      22.34      23.63
H      23.98      23.90      20.02
H       9.89      24.69      19.79
H      12.25      22.92      22.96
H      11.10     -12.81      24.57
H       8.68     -11.08      21.45
H       2.27      -5.59      10.36
H       5.93      29.42       9.30
H       7.18      -5.60       9.70
H       3.53      -3.57      10.75
H      19.87      -4.70      31.51
H      18.13      -8.64      31.10
H      19.31       9.17       0.98
H      21.09      13.07       1.39
H       9.14       7.70       9.30
H      12.80       5.65      10.37
H      11.53       3.62      10.75
H       7.89       5.65       9.69
H       2.79      10.02       0.75
H       5.10      13.70       0.81
H       6.31      -5.60      30.95
H       3.94      -9.20      30.88
H       0.20      29.47       6.67
H      28.88      26.81       9.79
H      26.59      26.99       8.95
H      27.94      29.62       5.80
H      16.36      23.29       4.09
H      14.93      27.27       3.29
H      17.20      28.16       3.57
H      18.64      24.16       4.34
H       1.31       4.77      28.00
H      29.87       8.75      28.73
H       2.11       9.65      28.46
H       3.59       5.65      27.77
H      13.74       8.21      22.29
H      15.16      10.88      25.36
H      12.88      11.06      26.26
H      11.46       8.41      23.16
H       0.16       0.82      13.10
H       1.03       4.59      11.17
H       3.24       3.74      10.52
H       2.37       0.01      12.51
H      28.78      15.21      18.22
H       0.15      16.57      22.06
H      27.90      17.25      22.66
H      26.50      15.87      18.82
H      16.28      21.84      18.12
H      14.85      20.51      21.97
H      17.13      19.85      22.59
H      18.56      21.20      18.75
H      14.94      -0.75      12.92
H      14.03      -4.53      11.04
H      11.81      -3.69      10.44
H      12.73       0.06      12.37
H      13.73      -4.87      28.08
H      15.14      -8.87      28.85
H      12.87      -9.74      28.56
H      11.45      -5.73      27.81
H      29.88     -10.75      25.25
H       1.31      -8.10      22.19
H       3.58      -8.32      23.08
H       2.12     -10.96      26.16
H       0.14       9.65       3.33
H      28.77      13.66       4.06
H      26.49      12.81       4.33
H      27.89       8.79       3.63
H      14.85       7.70       6.73
H      16.21      10.37       9.82
H      18.51      10.17       8.99
H      17.14       7.51       5.87
H      21.38      20.36       7.58
H      23.82      22.14      10.67
H      23.79      24.26       9.47
H      21.43      22.46       6.34
H      23.75      16.73      13.85
H      21.37      20.34      13.83
H      21.40      20.37      16.27
H      23.70      16.72      16.28
H      23.77      16.69       7.58
H      21.32      14.94      10.68
H      21.34      12.81       9.49
H      23.71      14.59       6.35
H       8.70       3.64      21.42
H       6.37       1.83      24.59
H       6.40       3.94      25.81
H       8.65       5.77      22.62
H       6.16      -1.63      18.34
H       8.97       1.65      18.33
H       8.96       1.66      15.89
H       6.16      -1.63      15.90
H       6.42      -3.61      21.41
H       8.73      -1.82      24.60
H       8.67      -3.93      25.82
H       6.44      -5.74      22.60
C      22.53      18.52      30.70
C      22.51     -17.34      31.42
C      22.49       1.20       0.72
C      22.48      -0.04       1.41
C      22.51      35.80       0.72
C      22.54      17.30      31.40
C       7.49      17.28      31.45
C       7.54      35.86       0.76
C       7.47       0.00       1.50
C       7.39       1.21       0.75
C       7.39     -17.33      31.45
C       7.42      18.52      30.76
C      22.59      19.76       9.99
C      22.58      19.75      11.40
C      22.57      18.54      12.12
C      22.55      17.32      11.40
C      22.56      17.30       9.99
C      22.58      18.53       9.30
C       7.54       1.24      22.15
C       7.56       0.01      22.84
C       7.58      -1.22      22.15
C       7.59      -1.20      20.74
C       7.57       0.01      20.03
C       7.53       1.22      20.74
C      27.01       6.06      29.97
C      26.46       5.15      29.03
C      27.14       4.76      27.84
C      28.46       5.26      27.66
C      29.05       6.15      28.58
C      28.32       6.54      29.72
C      16.02       9.40      23.21
C      16.58       8.14      22.94
C      17.89       8.02      22.42
C      18.63       9.20      22.17
C      18.10      10.47      22.46
C      16.79      10.55      22.97
C      29.07       3.27      12.58
C      28.46       2.89      13.81
C      27.13       3.28      14.14
C      26.44       4.10      13.20
C      27.02       4.48      11.97
C      28.33       4.07      11.69
C      12.02      24.58       2.14
C      11.46      23.71       3.09
C      12.17      23.33       4.26
C      13.49      23.81       4.43
C      14.08      24.67       3.48
C      13.33      25.05       2.35
C      13.99      21.66      19.63
C      13.26      22.45      20.53
C      11.95      22.90      20.24
C      11.39      22.53      18.99
C      12.09      21.70      18.07
C      13.40      21.29      18.40
C       1.11      28.00       8.80
C       1.67      26.73       9.05
C       3.00      26.61       9.51
C       3.76      27.77       9.73
C       3.21      29.07       9.52
C       1.88      29.15       9.04
C      16.05      -3.21      12.41
C      16.78      -4.03      11.53
C      18.10      -4.46      11.83
C      18.66      -4.07      13.08
C      17.95      -3.24      13.97
C      16.65      -2.82      13.63
C      18.08      -6.15      29.96
C      18.62      -5.26      29.00
C      17.88      -4.89      27.86
C      16.57      -5.39      27.70
C      16.01      -6.27      28.65
C      16.77      -6.64      29.77
C      29.05      -9.30      23.09
C      28.46      -8.04      22.80
C      27.13      -7.94      22.31
C      26.43      -9.16      22.07
C      26.99     -10.42      22.35
C      28.30     -10.47      22.86
C      13.94       9.17       8.86
C      13.36      10.43       9.10
C      12.02      10.54       9.55
C      11.28       9.35       9.76
C      11.85       8.07       9.55
C      13.19       8.01       9.09
C       1.02      15.43      19.73
C       1.77      14.64      20.62
C       3.09      14.21      20.31
C       3.63      14.58      19.05
C       2.90      15.39      18.15
C       1.59      15.80      18.50
C       3.06      12.38       2.12
C       3.59      13.29       3.07
C       2.89      13.65       4.25
C       1.59      13.12       4.44
C       1.01      12.24       3.50
C       1.75      11.88       2.36
C      24.42       1.50      23.85
C      24.43      -2.84      21.52
C      20.51      -1.65      23.77
C      20.54      -1.23      18.82
C      24.41       1.37      18.93
C      20.50       2.84      21.67
C       5.49      21.39      10.38
C       9.41      20.05       8.28
C       9.37      19.85      13.20
C       9.35      15.68      10.51
C       5.47      16.90       8.30
C       5.47      17.32      13.26
C      24.17      26.43       2.58
C      22.62      24.81       7.06
C      25.69      28.33       6.74
C      21.00      29.48       7.90
C      19.49      26.76       4.21
C      22.54      30.78       3.59
C       4.42       8.26      27.88
C       7.53       6.31      25.05
C       5.95      11.01      24.23
C      10.61       9.79      25.36
C       9.10       7.92      29.54
C       7.49      12.27      28.54
C      20.98      15.49      21.63
C      22.54      18.55      17.95
C      19.42      20.02      21.06
C      24.09      21.63      21.60
C      25.63      17.09      21.11
C      22.52      18.57      24.86
C      20.97      10.59       2.61
C      22.51      12.24       7.09
C      19.40       8.78       6.80
C      24.08       7.56       7.96
C      25.62      10.22       4.25
C      22.51       6.24       3.67
C       8.87       3.19      10.48
C       7.50       0.03       7.32
C      10.70      -1.23      11.09
C       6.19      -3.14      10.49
C       4.36       1.29      11.15
C       7.55       0.01      14.20
C      10.59      -8.32      27.91
C       7.54      -6.30      25.04
C       9.09     -11.01      24.19
C       4.41      -9.73      25.28
C       5.92      -7.94      29.50
C       7.45     -12.29      28.47
C      25.08       3.84      26.79
C      26.49       3.93      26.85
C      27.22       3.18      25.88
C      26.57       2.39      24.92
C      25.16       2.30      24.88
C      24.44       3.04      25.83
C      19.21       6.38      21.01
C      18.50       6.67      22.19
C      18.40       5.66      23.17
C      19.03       4.42      22.99
C      19.75       4.13      21.82
C      19.82       5.13      20.82
C      27.21       2.35      16.48
C      26.48       2.82      15.35
C      25.07       2.79      15.45
C      24.43       2.35      16.61
C      25.16       1.89      17.73
C      26.56       1.89      17.64
C      10.11      22.60       5.54
C      11.50      22.48       5.32
C      12.21      21.56       6.12
C      11.56      20.77       7.09
C      10.16      20.87       7.28
C       9.46      21.80       6.49
C      18.50      -1.38      15.59
C      18.59      -2.74      15.24
C      19.29      -3.61      16.09
C      19.88      -3.13      17.27
C      19.82      -1.77      17.62
C      19.12      -0.90      16.76
C      19.21      -2.85      27.15
C      18.49      -4.01      26.81
C      18.40      -4.35      25.44
C      19.03      -3.57      24.46
C      19.76      -2.42      24.81
C      19.82      -2.06      26.17
C      25.08      -6.55      22.07
C      26.49      -6.66      22.10
C      27.22      -5.45      21.93
C      26.57      -4.21      21.73
C      25.17      -4.13      21.69
C      24.44      -5.32      21.87
C      12.15      20.97      15.61
C      11.42      21.23      16.80
C      10.03      21.00      16.77
C       9.39      20.57      15.60
C      10.10      20.32      14.42
C      11.50      20.52      14.44
C       3.46      24.22       8.81
C       3.59      25.25       9.77
C       4.29      24.97      10.95
C       4.87      23.71      11.18
C       4.77      22.69      10.21
C       4.05      22.97       9.03
C       9.99      12.05       9.54
C      11.37      11.89       9.77
C      12.10      13.01      10.22
C      11.46      14.25      10.45
C      10.08      14.39      10.26
C       9.36      13.28       9.80
C       4.23      14.99      16.03
C       3.52      15.86      16.86
C       3.41      17.21      16.48
C       4.03      17.68      15.30
C       4.75      16.80      14.46
C       4.83      15.45      14.84
C       4.44      15.49       4.90
C       3.48      14.51       5.24
C       3.15      14.38       6.62
C       3.78      15.17       7.60
C       4.74      16.13       7.25
C       5.04      16.30       5.88
C      21.54      17.84      28.48
C      22.53      18.54      29.20
C      23.51      19.25      28.49
C      23.51      19.24      27.08
C      22.52      18.56      26.35
C      21.52      17.87      27.07
C      23.16      33.41       0.91
C      22.51      34.55       1.43
C      21.86      34.42       2.68
C      21.85      33.19       3.36
C      22.52      32.07       2.85
C      23.19      32.20       1.62
C      23.47       2.75       2.45
C      22.49       2.49       1.48
C      21.52       3.47       1.23
C      21.51       4.67       1.95
C      22.50       4.95       2.92
C      23.49       3.97       3.15
C       8.17      14.90      31.23
C       7.49      16.04      30.73
C       6.81      15.90      29.50
C       6.79      14.68      28.81
C       7.49      13.56      29.29
C       8.19      13.69      30.51
C       6.93       1.08       3.68
C       7.48       0.01       2.94
C       8.05      -1.05       3.69
C       8.06      -1.04       5.09
C       7.50       0.03       5.82
C       6.93       1.08       5.09
C       8.40     -15.78      29.73
C       7.40     -16.04      30.69
C       6.42     -15.06      30.91
C       6.42     -13.85      30.18
C       7.43     -13.58      29.23
C       8.43     -14.56      29.03
C      25.25       5.72      31.72
C      26.29       6.49      31.13
C      26.57       7.74      31.74
C      25.88      26.71       0.77
C      24.87      25.93       1.36
C      24.56      24.69       0.76
C      19.92      -6.09      11.26
C      18.85      -5.23      10.88
C      18.55      -5.16       9.50
C      19.26      31.15       8.56
C      20.29      30.28       8.94
C      20.62      30.22      10.31
C      18.78      12.79      23.16
C      18.90      11.72      22.25
C      19.77      11.88      21.15
C      20.47      13.09      20.95
C      20.31      14.17      21.84
C      19.46      13.99      22.95
C      26.36       4.99       9.59
C      26.24       5.27      10.96
C      25.36       6.31      11.34
C      24.64       7.05      10.38
C      24.79       6.77       9.01
C      25.65       5.72       8.63
C      10.34      24.19       0.26
C      11.23      25.05       0.95
C      11.37      26.37       0.48
C      10.67       8.28      31.46
C       9.79       7.43      30.76
C       9.63       6.11      31.24
C       3.54      13.50      22.65
C       3.84      13.43      21.26
C       4.90      12.57      20.88
C       5.59      11.78      21.83
C       5.26      11.85      23.19
C       4.23      12.73      23.58
C      25.34     -11.86      21.06
C      26.21     -11.68      22.16
C      26.33     -12.74      23.07
C      25.64      23.13      22.89
C      24.78      22.94      21.79
C      24.63      24.01      20.88
C      10.15      24.55      20.83
C      11.21      23.68      21.20
C      11.51      23.61      22.58
C      10.82     -12.70      23.53
C       9.79     -11.82      23.15
C       9.46     -11.75      21.79
C       3.33      -5.63      10.18
C       3.97      30.25       9.77
C       5.38      30.29       9.63
C       6.11      -5.60       9.84
C       5.46      -4.42      10.26
C       4.06      -4.46      10.43
C      19.75      -5.73      31.84
C      18.88      -6.60      31.15
C      18.76      -7.92      31.62
C      19.44      10.19       0.65
C      20.29      11.06       1.36
C      20.45      12.38       0.88
C       9.68       6.83       9.63
C      11.09       6.87       9.79
C      11.73       5.68      10.18
C      11.00       4.51      10.43
C       9.61       4.47      10.25
C       8.96       5.64       9.84
C       3.51      10.71       0.34
C       3.80      11.95       0.97
C       4.84      12.73       0.41
C       5.54      -6.24      31.36
C       5.22      -7.46      30.74
C       4.20      -8.24      31.31
C      29.44      28.93       7.18
C      29.74      28.12       8.29
C      28.69      27.44       8.92
C      27.37      27.55       8.44
C      27.07      28.33       7.31
C      28.13      29.02       6.68
C      16.54      24.35       3.97
C      15.46      25.21       3.67
C      15.73      26.59       3.51
C      17.03      27.09       3.67
C      18.11      26.23       3.96
C      17.84      24.85       4.10
C       1.47       5.84      28.10
C       0.39       6.69      28.38
C       0.65       8.07      28.52
C       1.95       8.58      28.37
C       3.04       7.73      28.11
C       2.78       6.34      27.99
C      13.56       8.84      23.15
C      14.63       9.52      23.76
C      14.36      10.34      24.87
C      13.06      10.45      25.39
C      11.99       9.76      24.78
C      12.26       8.97      23.65
C       0.83       1.49      12.56
C       0.41       2.78      12.21
C       1.30       3.58      11.46
C       2.57       3.10      11.08
C       2.99       1.81      11.46
C       2.09       1.01      12.20
C      28.60      15.66      19.19
C      29.66      15.84      20.09
C      29.38      16.41      21.35
C      28.08      16.80      21.69
C      27.01      16.61      20.79
C      27.29      16.02      19.54
C      16.45      21.40      19.10
C      15.38      21.22      19.99
C      15.66      20.67      21.26
C      16.96      20.29      21.61
C      18.04      20.48      20.73
C      17.76      21.05      19.46
C      14.27      -1.42      12.40
C      14.68      -2.71      12.04
C      13.77      -3.52      11.32
C      12.49      -3.04      10.98
C      12.08      -1.75      11.36
C      12.99      -0.95      12.07
C      13.55      -5.93      28.19
C      14.62      -6.80      28.48
C      14.34      -8.17      28.63
C      13.04      -8.67      28.46
C      11.97      -7.80      28.17
C      12.24      -6.43      28.05
C       0.66     -10.22      24.77
C       0.40      -9.41      23.65
C       1.47      -8.73      23.05
C       2.78      -8.87      23.56
C       3.04      -9.67      24.69
C       1.96     -10.34      25.29
C      29.37      10.35       3.54
C      29.65      11.72       3.68
C      28.59      12.59       3.96
C      27.28      12.11       4.10
C      27.00      10.73       3.99
C      28.07       9.86       3.71
C      15.64       8.24       7.23
C      15.35       9.05       8.34
C      16.40       9.74       8.96
C      17.72       9.61       8.49
C      18.01       8.81       7.37
C      16.95       8.13       6.74
C      21.94      21.19       8.00
C      22.60      21.06       9.23
C      23.27      22.19       9.74
C      23.27      23.41       9.05
C      22.62      23.53       7.81
C      21.96      22.40       7.29
C      23.21      17.52      14.35
C      22.56      18.54      13.62
C      21.91      19.56      14.34
C      21.91      19.57      15.75
C      22.55      18.54      16.47
C      23.19      17.52      15.75
C      23.21      15.87       8.00
C      22.54      16.00       9.24
C      21.87      14.87       9.75
C      21.87      13.65       9.06
C      22.52      13.53       7.82
C      23.18      14.65       7.30
C       8.17       3.69      22.37
C       7.53       2.55      22.90
C       6.89       2.67      24.15
C       6.90       3.88      24.85
C       7.53       5.02      24.31
C       8.15       4.91      23.06
C       6.79      -0.91      17.82
C       7.56       0.01      18.53
C       8.34       0.93      17.81
C       8.34       0.93      16.41
C       7.56       0.01      15.69
C       6.78      -0.91      16.41
C       6.94      -3.67      22.36
C       7.57      -2.53      22.90
C       8.20      -2.66      24.16
C       8.18      -3.87      24.86
C       7.56      -5.01      24.31
C       6.94      -4.89      23.05
O      22.47       0.00      21.43
O      23.16       1.39      23.99
O      25.03      -1.71      21.55
O      20.77      -2.20      22.65
O      25.02       0.97      22.85
O      20.91      -0.46      24.01
O      23.17      -2.90      21.36
O      20.79       0.01      18.89
O      25.01       0.77      19.88
O      20.94      -2.03      19.73
O      23.15       1.53      18.95
O      20.89       2.45      20.52
O      20.77       2.17      22.71
O       7.43      18.53      10.66
O       5.88      21.02      11.53
O       8.15      19.94       8.12
O       9.97      19.25      12.24
O       5.75      20.69       9.35
O       8.11      20.04      13.15
O      10.00      19.50       9.27
O       8.09      15.62      10.67
O       5.92      18.07       8.04
O       9.96      16.81      10.52
O       5.68      16.36       9.43
O       5.88      16.52      12.36
O       5.72      18.57      13.17
O      22.58      27.79       5.34
O      24.54      27.54       3.08
O      22.45      24.80       5.80
O      24.72      27.95       7.47
O      23.23      25.76       3.12
O      25.50      28.66       5.53
O      22.78      25.91       7.70
O      20.61      29.58       6.69
O      20.47      25.96       4.17
O      21.96      28.69       8.21
O      19.65      27.99       4.53
O      21.46      30.32       4.08
O      23.64      30.15       3.74
O       7.51       9.29      26.78
O       4.58       9.49      27.58
O       7.39       6.30      26.32
O       6.89      10.21      23.92
O       5.40       7.46      27.93
O       5.56      11.12      25.44
O       7.66       7.41      24.41
O      10.43      10.13      26.58
O       8.15       7.25      28.99
O       9.63       9.42      24.64
O       9.47       9.03      29.04
O       8.59      11.65      28.37
O       6.40      11.82      28.07
O      22.53      18.56      21.39
O      20.59      16.48      22.32
O      22.68      17.45      18.58
O      20.40      20.47      20.39
O      21.91      15.62      20.77
O      19.60      19.14      21.97
O      22.40      19.65      18.58
O      24.47      20.65      22.31
O      24.65      16.64      20.43
O      23.15      21.49      20.75
O      25.45      17.97      22.01
O      23.62      18.72      24.23
O      21.42      18.42      24.23
O      22.51       9.25       5.39
O      20.58       9.49       3.11
O      22.67      12.24       5.82
O      20.38       9.14       7.53
O      21.90      11.26       3.15
O      19.59       8.44       5.59
O      22.35      11.15       7.73
O      24.46       7.42       6.75
O      24.64      11.04       4.20
O      23.14       8.37       8.25
O      25.44       9.00       4.57
O      23.60       6.70       4.13
O      21.41       6.87       3.84
O       7.53       0.03      10.75
O       9.33       2.37      11.33
O       6.86       0.94       7.96
O       9.95      -1.75      10.19
O       7.81       2.92       9.82
O      10.31      -0.24      11.78
O       8.15      -0.87       7.95
O       5.73      -2.33      11.34
O       5.09       1.81      10.25
O       7.24      -2.87       9.81
O       4.77       0.29      11.82
O       6.77      -0.76      13.57
O       8.33       0.80      13.57
O       7.50      -9.29      26.74
O      10.41      -9.54      27.59
O       7.66      -6.30      26.31
O       8.15     -10.20      23.88
O       9.61      -7.51      27.94
O       9.45     -11.14      25.41
O       7.40      -7.39      24.39
O       4.57     -10.08      26.49
O       6.87      -7.28      28.98
O       5.40      -9.37      24.57
O       5.53      -9.03      28.98
O       6.36     -11.66      28.28
O       8.56     -11.84      28.03
