800

H      36.85      10.33       7.41
H      36.81      12.06       5.77
H       0.97      12.27       9.39
H       0.90      14.03       7.77
H       1.50      14.11       5.33
H       1.63      15.67       3.53
H      36.37      14.50       5.36
H      36.50      16.03       3.53
H      38.79      14.46       1.07
H      39.00      14.57      38.21
H      38.87      18.40      39.62
H      38.67      20.72       0.03
H      38.62      18.10       5.03
H      38.67      20.63       5.13
H       1.90      22.58       3.98
H       2.05      24.07       5.84
H      36.86      23.41       3.61
H      37.00      24.94       5.45
H      38.92      24.55       1.44
H      38.92      24.66      38.58
H      38.86      18.49      34.52
H      38.75      21.03      34.62
H      36.55      23.18      36.28
H      36.34      24.76      34.50
H       1.68      23.39      35.98
H       1.47      24.99      34.21
H       0.64      25.11      31.81
H       0.60      26.85      30.17
H      36.81      28.93      32.48
H      36.88      27.21      34.13
H       2.05      16.28      35.80
H       2.12      14.71      34.00
H      37.54      14.08      31.70
H      37.38      12.17      30.28
H       1.46      10.34      32.42
H       1.60      12.23      33.84
H      36.98      14.35      34.16
H      36.92      15.95      35.94
H      37.39      25.07       7.91
H      37.41      26.89       9.47
H       1.88      26.52       6.17
H       1.93      28.30       7.75
H      37.75       9.61      30.46
H      38.65      10.07      10.33
H      38.93      28.91      10.46
H      38.29      29.02      29.34
H      10.49       2.48      27.32
H      12.20       2.52      25.67
H      12.42      38.34      29.26
H      14.16      38.40      27.63
H      14.22      37.81      25.19
H      15.77      37.67      23.38
H      14.65       2.94      25.23
H      16.16       2.80      23.39
H      14.56       0.51      20.92
H      14.65       0.39      18.39
H      18.49       0.50      19.79
H      20.83       0.59      19.87
H      18.21       0.66      24.88
H      20.74       0.59      24.97
H      22.71      37.37      23.80
H      24.22      37.23      25.65
H      23.51       2.43      23.45
H      25.06       2.28      25.27
H      24.66       0.37      21.27
H      24.75       0.44      18.74
H      18.57       0.48      14.69
H      21.10       0.59      14.78
H      23.28       2.79      16.43
H      24.85       2.98      14.64
H      23.45      37.65      16.15
H      25.05      37.84      14.38
H      25.16      38.66      11.96
H      26.90      38.68      10.32
H      29.02       2.44      12.62
H      27.31       2.40      14.27
H      16.36      37.31      16.01
H      14.77      37.21      14.21
H      14.12       1.76      11.87
H      12.19       1.88      10.46
H      10.40      37.83      12.67
H      12.30      37.73      14.08
H      14.41       2.35      14.32
H      16.02       2.44      16.09
H      25.21       1.88      27.74
H      27.05       1.86      29.27
H      26.68      37.41      25.96
H      28.47      37.37      27.51
H       9.63       1.49      10.65
H      10.23       0.72      30.22
H      29.08       0.37      30.24
H      29.08       0.97       9.48
H      38.33      31.31      28.38
H      38.56      33.64      27.84
H       0.15      32.15      32.42
H       0.37      34.47      31.89
H       2.64      34.60      29.39
H       4.49      36.33      29.28
H       0.93      38.30      29.52
H      38.41       0.93      29.43
H      36.35      34.77      29.79
H      34.61      36.62      29.63
H      34.31       0.14      27.04
H      31.93       0.12      26.78
H      33.86       0.29      31.24
H      31.47       0.27      30.98
H      34.85       2.88      28.97
H      36.70       4.61      28.97
H       4.72       2.63      29.49
H       2.98       4.49      29.48
H      38.78       4.85      31.53
H      38.89       7.20      31.97
H       0.91       5.54      27.54
H       1.05       7.90      28.00
H       5.02      38.77      27.12
H       7.38      38.97      26.83
H       7.86       0.45      30.99
H       5.48       0.23      31.29
H      31.37       0.88       8.52
H      33.70       0.63       7.99
H      32.19      39.01      12.55
H      34.51      38.76      12.03
H      34.65      36.53       9.46
H      36.38      34.68       9.34
H      38.36      38.23       9.70
H       0.98       0.76       9.60
H      34.81       2.81       9.91
H      36.66       4.55       9.78
H       0.42       4.83       7.24
H       0.23       7.19       6.94
H       0.05       5.33      11.42
H      38.91       7.71      11.11
H       2.94       4.32       9.26
H       4.67       2.47       9.26
H       2.68      34.45       9.68
H       4.53      36.18       9.70
H       4.88       0.32      11.77
H       7.23       0.23      12.21
H       5.60      38.32       7.74
H       7.97      38.21       8.20
H      39.08      34.14       7.24
H       0.02      31.75       6.99
H      39.06      31.30      11.19
H      39.04      33.70      11.45
H      28.92       2.35      38.09
H      28.88       4.07      36.45
H      32.03       4.26       0.39
H      32.04       6.04      38.45
H      32.65       6.12      36.01
H      32.78       7.68      34.21
H      28.43       6.51      36.04
H      28.57       8.04      34.21
H      30.86       6.47      31.74
H      30.98       6.57      29.21
H      30.85      10.40      30.62
H      30.74      12.74      30.71
H      30.69      10.11      35.71
H      30.74      12.64      35.81
H      33.05      14.59      34.65
H      33.19      16.08      36.52
H      28.93      15.43      34.29
H      29.07      16.96      36.12
H      30.99      16.56      32.12
H      30.90      16.66      29.58
H      30.84      10.49      25.52
H      30.73      13.02      25.62
H      28.53      15.17      27.28
H      28.32      16.75      25.50
H      32.74      15.38      26.98
H      32.53      16.98      25.21
H      31.70      17.10      22.81
H      31.65      18.85      21.17
H      28.79      20.93      23.48
H      28.86      19.21      25.13
H      33.11       8.28      26.80
H      33.18       6.71      25.00
H      29.52       6.08      22.70
H      29.36       4.17      21.28
H      32.52       2.34      23.42
H      32.65       4.23      24.84
H      28.96       6.35      25.16
H      28.90       7.94      26.94
H      29.46      17.08      38.59
H      29.39      18.89       0.47
H      33.03      18.54      36.85
H      33.08      20.31      38.42
H      29.73       1.60      21.46
H      30.63       2.07       1.33
H      30.91      20.90       1.46
H      30.27      21.01      20.34
H       2.47      33.55      18.32
H       4.18      33.59      16.67
H       4.40      30.33      20.26
H       6.14      30.40      18.63
H       6.20      29.81      16.19
H       7.75      29.67      14.38
H       6.63      34.01      16.23
H       8.14      33.87      14.39
H       6.54      31.59      11.92
H       6.63      31.47       9.39
H      10.47      31.58      10.79
H      12.81      31.66      10.87
H      10.19      31.73      15.88
H      12.72      31.67      15.97
H      14.69      29.37      14.80
H      16.20      29.23      16.65
H      15.49      33.50      14.45
H      17.04      33.36      16.27
H      16.64      31.44      12.27
H      16.73      31.52       9.74
H      10.55      31.56       5.69
H      13.08      31.66       5.78
H      15.26      33.86       7.43
H      16.83      34.05       5.64
H      15.43      29.65       7.15
H      17.03      29.83       5.38
H      17.14      30.66       2.96
H      18.88      30.68       1.32
H      21.00      33.52       3.62
H      19.29      33.47       5.27
H       8.34      29.30       7.01
H       6.75      29.21       5.21
H       6.10      32.83       2.87
H       4.17      32.95       1.46
H       2.38      29.82       3.67
H       4.28      29.72       5.08
H       6.39      33.42       5.32
H       8.00      33.51       7.09
H      17.19      32.95      18.74
H      19.03      32.93      20.27
H      18.66      29.41      16.96
H      20.45      29.37      18.51
H       1.61      32.56       1.65
H       2.21      31.79      21.22
H      21.06      31.44      21.24
H      21.06      32.05       0.48
H      30.31      23.30      19.38
H      30.54      25.64      18.84
H      31.21      24.14      23.42
H      31.43      26.47      22.89
H      33.70      26.59      20.39
H      35.55      28.32      20.28
H      31.99      30.30      20.52
H      30.39      32.00      20.43
H      28.33      26.76      20.79
H      26.59      28.61      20.63
H      26.29      31.21      18.04
H      23.91      31.19      17.78
H      25.84      31.36      22.24
H      23.45      31.34      21.98
H      26.83      33.95      19.97
H      28.68      35.69      19.97
H      35.77      33.71      20.49
H      34.04      35.56      20.48
H      30.76      35.92      22.53
H      30.87      38.27      22.97
H      31.97      36.61      18.54
H      32.11      38.98      19.00
H      36.07      30.77      18.12
H      38.44      30.97      17.83
H      38.92      31.52      21.99
H      36.54      31.31      22.29
H      23.44      31.97      39.19
H      25.77      31.72      38.66
H      24.17      31.00       3.55
H      26.49      30.76       3.03
H      26.63      28.52       0.46
H      28.36      26.67       0.34
H      30.34      30.23       0.70
H      32.04      31.83       0.60
H      26.79      33.89       0.91
H      28.64      35.62       0.78
H      31.57      35.92      37.92
H      31.37      38.28      37.61
H      31.10      36.40       2.42
H      30.89      38.78       2.11
H      34.00      35.40       0.26
H      35.73      33.55       0.26
H      33.73      26.44       0.68
H      35.59      28.17       0.70
H      35.94      31.40       2.77
H      38.29      31.31       3.21
H      36.75      30.33      38.42
H      39.12      30.23      38.88
H      31.15      26.15      37.92
H      31.17      23.77      37.67
H      31.04      23.30       2.19
H      31.02      25.70       2.45
C      38.81      15.32       0.52
C      38.97      15.39      38.82
C      38.96      16.74      38.43
C      38.77      16.63       1.00
C      38.70      17.00       2.38
C      38.70      18.33       2.87
C      38.76      20.56       2.95
C      38.70      20.08       4.27
C      38.66      18.71       4.21
C      38.82      21.92       2.57
C      38.81      22.39       1.22
C      38.83      22.49      38.65
C      38.90      23.80      39.13
C      38.86      23.73       0.83
C      38.78      22.13      37.28
C      38.82      20.80      36.78
C      38.92      18.57      36.70
C      38.87      19.04      35.39
C      38.80      20.42      35.44
C      38.97      17.20      37.09
C      39.02      16.24      36.05
C      37.82      15.69      35.54
C      37.86      14.77      34.47
C      39.10      14.38      33.89
C       1.21      14.96      34.40
C       1.17      15.88      35.46
C      39.14      13.36      32.90
C       0.95      12.27      33.05
C       0.87      11.15      32.21
C      38.98      11.09      31.18
C      38.12      12.20      30.99
C      38.21      13.32      31.83
C      38.67      23.16      36.31
C      37.40      23.57      35.87
C      37.28      24.50      34.81
C      38.42      25.03      34.17
C       0.62      24.61      34.63
C       0.75      23.69      35.69
C      38.30      25.98      33.13
C      37.44      27.10      33.28
C      37.40      28.11      32.31
C      38.23      28.05      31.16
C      39.05      26.92      30.98
C      39.09      25.90      31.95
C      38.91      22.88       3.61
C       1.06      23.08       4.28
C       1.14      23.95       5.37
C      39.08      24.65       5.84
C      37.85      24.44       5.17
C      37.76      23.56       4.07
C       0.10      25.61       6.89
C      38.17      25.73       7.89
C      38.19      26.79       8.81
C       0.14      27.76       8.76
C       1.19      27.60       7.82
C       1.16      26.54       6.90
C      38.61      15.96       3.35
C       0.71      15.41       3.89
C      37.36      15.61       3.89
C      37.29      14.71       4.97
C      38.46      14.15       5.54
C       0.63      14.51       4.97
C      38.38      13.22       6.61
C       0.21      13.27       7.70
C       0.24      12.25       8.67
C      38.44      11.15       8.56
C      37.48      11.13       7.53
C      37.45      12.15       6.56
C      38.70       9.88      30.55
C      38.34      29.13      30.32
C       0.04      28.93       9.49
C      38.64      10.02       9.34
C      15.43       0.49      20.37
C      15.48       0.42      18.99
C      16.82       0.42      18.60
C      16.74       0.52      20.85
C      17.11       0.60      22.22
C      18.44       0.58      22.71
C      20.67       0.51      22.80
C      20.20       0.57      24.11
C      18.82       0.62      24.06
C      22.03       0.46      22.40
C      22.50       0.46      21.06
C      22.58       0.52      18.81
C      23.89       0.47      19.29
C      23.84       0.42      20.67
C      22.21       0.57      17.44
C      20.88       0.53      16.95
C      18.65       0.44      16.87
C      19.12       0.48      15.55
C      20.49       0.55      15.60
C      17.28       0.40      17.26
C      16.32       0.34      16.22
C      15.76       1.53      15.70
C      14.83       1.47      14.64
C      14.45       0.23      14.08
C      15.03      38.13      14.60
C      15.95      38.18      15.65
C      13.41       0.18      13.10
C      12.33      38.37      13.28
C      11.20      38.42      12.44
C      11.13       0.29      11.39
C      12.23       1.15      11.18
C      13.36       1.09      12.02
C      23.24       0.67      16.47
C      23.66       1.93      16.01
C      24.59       2.04      14.96
C      25.10       0.89      14.33
C      24.68      38.69      14.79
C      23.76      38.58      15.85
C      26.06       0.99      13.28
C      27.18       1.84      13.42
C      28.20       1.86      12.45
C      28.12       1.03      11.31
C      26.97       0.23      11.13
C      25.96       0.21      12.11
C      22.99       0.37      23.45
C      23.21      38.21      24.10
C      24.09      38.14      25.19
C      24.78       0.21      25.66
C      24.55       1.44      24.99
C      23.66       1.52      23.91
C      25.76       0.11      26.70
C      25.88       1.10      27.70
C      26.95       1.08      28.61
C      27.92       0.07      28.55
C      27.77      38.11      27.60
C      26.70      38.13      26.69
C      16.08       0.69      23.20
C      15.51      38.59      23.74
C      15.74       1.94      23.75
C      14.85       2.02      24.84
C      14.28       0.85      25.40
C      14.62      38.68      24.83
C      13.36       0.93      26.49
C      13.41       0.02      27.57
C      12.40      39.07      28.54
C      11.31       0.88      28.46
C      11.29       1.84      27.42
C      12.30       1.87      26.45
C       9.92       0.54      10.75
C      29.20       0.91      10.46
C      29.10       0.17      29.27
C      10.18       0.68      29.23
C       2.49      35.61      29.38
C       3.50      36.55      29.31
C       2.91      37.82      29.35
C       1.27      36.28      29.45
C      39.07      35.66      29.56
C      37.83      36.34      29.55
C      36.30      37.97      29.42
C      35.62      36.76      29.58
C      36.57      35.76      29.67
C      35.71       0.18      29.29
C      36.43       1.40      29.19
C      38.07       2.94      29.20
C      36.85       3.60      29.05
C      35.84       2.66      29.04
C       0.26       3.57      29.29
C       1.50       2.89      29.34
C       3.03       1.26      29.37
C       3.71       2.48      29.43
C       2.76       3.49      29.44
C       3.62      39.05      29.35
C       5.04      39.00      29.23
C       5.88       0.12      30.35
C       7.27       0.24      30.18
C       7.84       0.17      28.89
C       7.00      39.00      27.78
C       5.61      38.89      27.95
C       0.28       4.98      29.49
C      39.03       5.48      30.77
C      39.09       6.86      31.02
C       0.40       7.76      30.01
C       0.74       7.27      28.73
C       0.66       5.88      28.47
C      34.30       0.22      29.16
C      33.72       0.18      27.88
C      32.33       0.17      27.73
C      31.49       0.20      28.86
C      32.06       0.26      30.15
C      33.46       0.27      30.30
C      39.04      34.26      29.82
C      38.73      33.33      28.80
C       0.17      33.81      31.14
C      39.11      32.45      31.45
C      38.78      31.51      30.44
C      38.60      31.96      29.11
C      35.66      36.68       9.48
C      36.60      35.67       9.40
C      37.87      36.26       9.47
C      36.34      37.90       9.58
C      35.71       0.09       9.70
C      36.39       1.33       9.70
C      38.02       2.86       9.61
C      36.81       3.54       9.73
C      35.81       2.60       9.81
C       0.23       3.45       9.50
C       1.46       2.74       9.42
C       2.99       1.10       9.42
C       3.66       2.32       9.31
C       2.72       3.33       9.30
C       3.63      38.90       9.50
C       2.95      37.66       9.53
C       1.31      36.14       9.52
C       2.53      35.46       9.61
C       3.54      36.40       9.63
C       0.02      35.54       9.49
C      39.05      34.13       9.37
C      39.03      33.29      10.51
C      39.04      31.89      10.36
C      39.06      31.32       9.07
C      39.07      32.15       7.94
C      39.06      33.55       8.08
C       5.03      38.88       9.71
C       5.52       0.09      11.00
C       6.90       0.05      11.26
C       7.81      38.79      10.24
C       7.33      38.49       8.95
C       5.94      38.55       8.68
C       0.27       4.87       9.36
C       0.34       5.43       8.07
C       0.22       6.81       7.89
C       0.03       7.66       9.00
C      39.08       7.11      10.30
C       0.13       5.72      10.48
C      34.31       0.12       9.95
C      33.39       0.45       8.94
C      33.86      38.98      11.27
C      32.49       0.05      11.58
C      31.57       0.41      10.58
C      32.02       0.60       9.25
C      30.88       7.34      31.20
C      30.95       7.39      29.82
C      30.94       8.73      29.43
C      30.84       8.65      31.68
C      30.77       9.01      33.05
C      30.77      10.34      33.55
C      30.83      12.57      33.63
C      30.77      12.09      34.94
C      30.73      10.72      34.89
C      30.89      13.94      33.24
C      30.88      14.40      31.90
C      30.81      14.49      29.65
C      30.88      15.80      30.13
C      30.93      15.74      31.51
C      30.76      14.12      28.28
C      30.80      12.79      27.78
C      30.90      10.56      27.70
C      30.85      11.04      26.39
C      30.78      12.41      26.44
C      30.95       9.20      28.09
C      31.00       8.24      27.05
C      29.80       7.69      26.54
C      29.84       6.77      25.48
C      31.08       6.38      24.89
C      32.27       6.95      25.40
C      32.23       7.88      26.46
C      31.12       5.36      23.90
C      32.00       4.27      24.05
C      31.92       3.15      23.21
C      30.96       3.08      22.18
C      30.10       4.19      21.99
C      30.19       5.32      22.83
C      30.65      15.16      27.31
C      29.38      15.57      26.87
C      29.26      16.49      25.81
C      30.40      17.02      25.18
C      31.68      16.61      25.63
C      31.80      15.68      26.69
C      30.28      17.98      24.13
C      29.42      19.09      24.28
C      29.38      20.11      23.31
C      30.21      20.04      22.16
C      31.03      18.91      21.98
C      31.07      17.89      22.95
C      30.98      14.89      34.29
C      32.21      15.09      34.95
C      32.29      15.97      36.05
C      31.14      16.66      36.51
C      29.92      16.45      35.84
C      29.83      15.57      34.75
C      31.24      17.62      37.57
C      30.24      17.74      38.56
C      30.26      18.80      39.49
C      31.29      19.77      39.44
C      32.33      19.61      38.50
C      32.31      18.56      37.58
C      30.68       7.98      34.02
C      31.86       7.42      34.57
C      29.43       7.62      34.57
C      29.36       6.73      35.65
C      30.53       6.17      36.22
C      31.78       6.52      35.65
C      30.45       5.23      37.29
C      31.36       5.28      38.38
C      31.39       4.26      39.34
C      30.51       3.16      39.24
C      29.55       3.14      38.20
C      29.52       4.17      37.24
C      30.68       1.88      21.55
C      30.32      21.13      21.32
C      31.09      20.92       0.49
C      30.62       2.02       0.34
C       7.41      31.56      11.37
C       7.46      31.49       9.99
C       8.80      31.50       9.60
C       8.72      31.60      11.85
C       9.09      31.67      13.23
C      10.42      31.66      13.71
C      12.65      31.59      13.80
C      12.18      31.65      15.11
C      10.80      31.69      15.06
C      14.01      31.53      13.40
C      14.48      31.54      12.06
C      14.56      31.60       9.81
C      15.87      31.54      10.29
C      15.82      31.49      11.67
C      14.19      31.64       8.44
C      12.86      31.61       7.95
C      10.63      31.52       7.87
C      11.10      31.56       6.55
C      12.47      31.62       6.60
C       9.26      31.47       8.26
C       8.30      31.42       7.22
C       7.74      32.60       6.70
C       6.81      32.55       5.64
C       6.43      31.31       5.08
C       7.01      30.12       5.60
C       7.93      30.18       6.65
C       5.39      31.25       4.10
C       4.30      30.36       4.28
C       3.18      30.42       3.44
C       3.11      31.37       2.39
C       4.21      32.22       2.18
C       5.34      32.16       3.02
C      15.22      31.74       7.47
C      15.64      33.01       7.01
C      16.57      33.11       5.96
C      17.08      31.96       5.33
C      16.66      30.69       5.79
C      15.74      30.58       6.85
C      18.04      32.07       4.28
C      19.16      32.92       4.42
C      20.18      32.93       3.45
C      20.10      32.11       2.31
C      18.95      31.30       2.13
C      17.94      31.28       3.11
C      14.97      31.44      14.45
C      15.19      30.21      15.10
C      16.07      30.13      16.19
C      16.76      31.28      16.66
C      16.53      32.51      15.99
C      15.64      32.59      14.91
C      17.74      31.18      17.70
C      17.86      32.18      18.70
C      18.93      32.16      19.61
C      19.90      31.14      19.55
C      19.75      30.10      18.60
C      18.68      30.13      17.69
C       8.06      31.76      14.20
C       7.49      30.59      14.74
C       7.72      33.01      14.75
C       6.83      33.09      15.84
C       6.26      31.92      16.40
C       6.60      30.67      15.83
C       5.34      32.00      17.49
C       5.39      31.09      18.57
C       4.38      31.06      19.54
C       3.29      31.95      19.46
C       3.27      32.92      18.42
C       4.28      32.94      17.45
C       1.90      31.61       1.75
C      21.18      31.98       1.46
C      21.07      31.25      20.27
C       2.16      31.75      20.23
C      33.55      27.61      20.38
C      34.55      28.55      20.31
C      33.97      29.81      20.35
C      32.33      28.28      20.45
C      31.05      27.66      20.56
C      29.81      28.34      20.55
C      28.28      29.97      20.42
C      27.60      28.76      20.58
C      28.55      27.75      20.67
C      27.69      31.25      20.29
C      28.41      32.47      20.19
C      30.05      34.01      20.20
C      28.83      34.68      20.05
C      27.82      33.73      20.04
C      31.32      34.65      20.29
C      32.56      33.97      20.34
C      34.09      32.33      20.37
C      34.76      33.55      20.43
C      33.82      34.56      20.44
C      34.68      31.04      20.35
C      36.10      30.99      20.23
C      36.94      31.19      21.35
C      38.33      31.32      21.18
C      38.89      31.24      19.89
C      38.05      31.00      18.78
C      36.67      30.88      18.95
C      31.33      36.06      20.49
C      31.01      36.56      21.77
C      31.07      37.93      22.02
C      31.45      38.83      21.01
C      31.79      38.34      19.73
C      31.71      36.96      19.47
C      26.28      31.30      20.16
C      25.70      31.25      18.88
C      24.31      31.24      18.73
C      23.47      31.28      19.86
C      24.04      31.33      21.15
C      25.44      31.34      21.30
C      31.02      26.26      20.82
C      30.71      25.33      19.80
C      31.22      25.80      22.14
C      31.09      24.44      22.45
C      30.76      23.51      21.44
C      30.58      23.96      20.11
C      27.64      28.67       0.48
C      28.58      27.67       0.40
C      29.85      28.25       0.47
C      28.32      29.89       0.58
C      27.69      31.16       0.70
C      28.37      32.41       0.70
C      30.00      33.93       0.61
C      28.79      34.61       0.73
C      27.79      33.67       0.81
C      31.29      34.53       0.50
C      32.51      33.81       0.42
C      34.05      32.17       0.42
C      34.72      33.39       0.31
C      33.78      34.40       0.30
C      34.68      30.90       0.50
C      34.00      29.65       0.53
C      32.37      28.13       0.52
C      33.59      27.45       0.61
C      34.60      28.39       0.63
C      31.08      27.54       0.49
C      31.03      26.13       0.37
C      31.01      25.29       1.51
C      31.02      23.89       1.36
C      31.04      23.31       0.07
C      31.14      24.17      38.61
C      31.13      25.56      38.76
C      36.09      30.88       0.71
C      36.58      31.17       2.00
C      37.96      31.12       2.26
C      38.87      30.79       1.24
C      38.47      30.50      39.62
C      37.09      30.56      39.36
C      31.33      35.94       0.36
C      31.49      36.52      38.74
C      31.37      37.90      38.57
C      31.18      38.75      39.67
C      31.06      38.19       1.30
C      31.18      36.80       1.48
C      26.29      31.19       0.95
C      25.45      31.54      39.62
C      25.84      30.98       2.27
C      24.47      31.12       2.58
C      23.55      31.48       1.58
C      24.00      31.67       0.25
N      38.90      17.44      39.58
N      38.76      19.47       2.15
N      38.75      21.68       0.07
N      38.89      19.65      37.50
N      17.53       0.48      19.75
N      19.58       0.52      22.00
N      21.78       0.52      19.91
N      19.73       0.47      17.66
N       1.58      37.60      29.42
N      37.62      37.67      29.40
N      37.76       1.62      29.27
N       1.72       1.56      29.30
N       0.56       9.03      30.33
N      30.19       0.12      28.61
N      38.58      30.28      30.85
N       9.10       0.41      28.60
N      37.66      37.59       9.56
N      37.72       1.54       9.58
N       1.68       1.41       9.47
N       1.62      37.45       9.47
N       9.08      38.66      10.56
N      38.87       8.93       8.71
N      30.33       0.63      10.99
N       0.08      30.02       8.83
N      30.88       9.44      30.58
N      30.83      11.49      32.83
N      30.82      13.69      30.75
N      30.87      11.65      28.50
N       9.51      31.55      10.76
N      11.56      31.60      13.00
N      13.76      31.60      10.91
N      11.71      31.54       8.66
N      32.63      29.60      20.42
N      29.60      29.66      20.40
N      29.74      32.69      20.27
N      32.77      32.63      20.30
N      31.62       1.02      21.33
N      22.17      31.19      19.61
N      30.56      22.27      21.85
N       1.08      31.49      19.60
N      29.64      29.59       0.56
N      29.70      32.62       0.58
N      32.73      32.48       0.47
N      32.67      29.45       0.47
N       1.06      30.66       1.56
N      30.94       0.94      39.39
N      22.31      31.70       1.99
N      31.22      22.04      39.51
