544

C      10.32       4.40      23.46
C       9.39       3.40      23.82
C       8.40       3.62      24.81
C       8.38       4.88      25.45
C       9.30       5.91      25.12
C      10.26       5.66      24.10
C      11.26       4.11      22.43
C      12.35       3.24      22.65
C      13.22       2.88      21.58
C      12.94       3.38      20.29
C      11.83       4.23      20.04
C      11.02       4.60      21.13
C      11.54       4.66      18.75
C       9.31       7.11      25.82
C       7.50       2.62      25.18
C      14.25       1.96      21.79
C      20.19      41.88       9.05
C      44.62      -3.44       9.23
C      43.76      -2.54       9.90
C      42.52      -3.03      10.38
C      18.07      42.29      10.23
C      18.96      41.40       9.58
C      21.12      41.02       8.40
C      21.34      41.10       7.00
C      22.35      40.31       6.38
C      23.16      39.49       7.20
C      22.98      39.42       8.60
C      21.94      40.19       9.18
C      23.83      38.65       9.39
C      16.81      41.84      10.64
C      44.09      -1.19      10.04
C      22.60      40.45       5.01
C       3.04      19.94      34.04
C       1.99      20.44      33.24
C       0.79      20.93      33.81
C       0.66      20.89      35.22
C       1.70      20.40      36.05
C       2.90      19.94      35.44
C       4.22      19.49      33.39
C       4.26      18.28      32.65
C       5.42      17.90      31.93
C       6.53      18.79      31.92
C       6.50      20.02      32.61
C       5.34      20.35      33.36
C       7.58      20.91      32.53
C       1.52      20.29      37.43
C      -0.26      21.40      33.02
C       5.42      16.74      31.15
C      27.47      -5.66      20.15
C      27.94      -5.81      21.48
C      27.29      -5.17      22.57
C      26.16      -4.37      22.28
C      25.66      -4.21      20.97
C      26.32      -4.88      19.90
C      28.16      -6.35      19.11
C      29.44      -5.95      18.67
C      30.15      -6.72      17.71
C       5.49      38.76      17.24
C       4.22      38.31      17.70
C       3.52      39.12      18.63
C       3.71      37.09      17.28
C      24.60      -3.34      20.70
C      27.77      -5.30      23.87
C      31.44      -6.34      17.33
C      -5.11      25.30      19.02
C      -4.18      26.30      18.66
C      -3.20      26.08      17.67
C      -3.18      24.82      17.03
C      -4.09      23.79      17.37
C      -5.05      24.04      18.38
C      -6.05      25.58      20.05
C      -7.14      26.46      19.84
C      -8.01      26.82      20.90
C      -7.73      26.31      22.20
C      -6.63      25.46      22.44
C      -5.81      25.09      21.35
C      -6.33      25.03      23.74
C      -4.11      22.59      16.66
C      -2.30      27.08      17.30
C      -9.04      27.74      20.70
C     -14.98     -12.20      33.44
C     -39.41      33.13      33.26
C     -38.55      32.22      32.60
C     -37.31      32.72      32.11
C     -12.86     -12.60      32.26
C     -13.76     -11.72      32.92
C     -15.91     -11.34      34.09
C     -16.14     -11.42      35.49
C     -17.15     -10.63      36.11
C     -17.95      -9.80      35.29
C     -17.77      -9.73      33.89
C     -16.73     -10.50      33.31
C     -18.63      -8.96      33.10
C     -11.60     -12.15      31.85
C     -38.88      30.87      32.45
C     -17.40     -10.76      37.48
C       2.16       9.75       8.45
C       3.22       9.25       9.25
C       4.41       8.75       8.67
C       4.54       8.79       7.26
C       3.50       9.29       6.43
C       2.30       9.75       7.04
C       0.98      10.20       9.09
C       0.94      11.41       9.83
C      -0.22      11.79      10.56
C      -1.32      10.90      10.57
C      -1.30       9.67       9.87
C      -0.14       9.34       9.13
C      -2.38       8.79       9.96
C       3.68       9.40       5.06
C       5.46       8.28       9.47
C      -0.21      12.95      11.33
C     -22.26      35.36      22.34
C     -22.72      35.50      21.01
C     -22.07      34.87      19.92
C     -20.94      34.07      20.20
C     -20.45      33.90      21.52
C     -21.11      34.57      22.59
C     -22.94      36.05      23.38
C     -24.23      35.64      23.82
C     -24.94      36.40      24.79
C      -0.28      -9.07      25.25
C       0.98      -8.62      24.79
C       1.68      -9.42      23.86
C       1.50      -7.39      25.21
C     -19.39      33.04      21.79
C     -22.55      35.00      18.62
C     -26.23      36.02      25.17
C       8.05       8.88      26.81
C       6.83       9.57      26.62
C       7.45      11.29      28.17
C       8.68      10.63      28.41
C       8.97       9.43      27.74
C       7.17      12.49      28.85
C       6.66      14.89      30.27
C       7.87      14.19      30.46
C       8.13      12.99      29.77
C       5.74      14.34      29.33
C      39.20      -4.81      12.32
C      39.08      -4.70      13.72
C      36.78      -5.38      13.68
C      12.75      41.20      12.26
C      13.96      41.49      11.60
C      35.57      -5.67      14.33
C       9.02      40.43      15.60
C       9.14      40.34      14.19
C      10.36      40.63      13.55
C      34.26      -5.87      16.32
C       0.71      21.29      39.45
C       0.52      22.57      40.01
C       0.11      21.66      42.18
C       0.27      20.35      41.67
C       0.57      20.17      40.30
C      23.90      39.14       0.21
C      23.29      39.41       2.96
C      23.47      38.13       2.39
C      23.77      37.99       1.02
C      23.44      40.53       2.10
C      22.45      -2.53      21.36
C      21.28      -2.99      22.00
C      20.03      -1.07      21.33
C      21.18      -0.55      20.68
C      22.38      -1.28      20.70
C      18.84      -0.31      21.30
C      16.47       1.23      21.23
C      17.64       1.69      20.59
C      18.83       0.93      20.63
C      16.54      -0.02      21.88
C      -2.85      20.81      15.67
C      -1.62      20.13      15.85
C      -2.24      18.41      14.31
C      -3.48      19.05      14.08
C      -3.78      20.25      14.76
C      -1.97      17.20      13.63
C      -1.45      14.81      12.22
C      -2.67      15.49      12.03
C      -2.94      16.69      12.73
C      -0.53      15.36      13.14
C     -33.98      34.49      30.18
C     -33.85      34.35      28.78
C     -31.57      35.06      28.82
C      -7.55     -11.47      30.23
C      -8.76     -11.76      30.90
C     -30.35      35.35      28.16
C      -3.81     -10.74      26.90
C      -3.94     -10.61      28.30
C      -5.16     -10.90      28.94
C     -29.04      35.52      26.17
C       4.49       8.40       3.04
C       4.67       7.12       2.47
C       5.09       8.03       0.30
C       4.94       9.34       0.82
C       4.64       9.52       2.19
C     -18.70      -9.46      42.28
C     -18.09      -9.72      39.53
C     -18.26      -8.44      40.10
C     -18.56      -8.30      41.47
C     -18.25     -10.84      40.38
C     -17.23      32.23      21.13
C     -16.06      32.70      20.50
C     -14.82      30.77      21.16
C     -15.97      30.24      21.80
C     -17.17      30.97      21.78
C     -13.63      30.01      21.19
C     -11.26      28.46      21.25
C     -12.44      27.99      21.88
C     -13.62      28.76      21.85
C     -11.32      29.73      20.62
C       9.73       5.33      17.28
C       8.32       5.39      17.30
C       8.23       6.20      15.06
C       9.65       6.17      14.98
C      10.39       5.73      16.10
C       7.50       6.64      13.94
C       6.06       7.53      11.69
C       7.48       7.48      11.65
C       8.20       7.03      12.78
C       5.42       7.14      12.88
C     -27.71      38.49      11.60
C     -27.64      39.25      12.79
C     -26.24      37.64      13.85
C     -26.27      36.83      12.68
C     -27.01      37.26      11.56
C     -25.50      37.19      14.96
C     -24.02      36.27      17.17
C     -24.08      35.50      15.99
C     -24.81      35.95      14.88
C     -24.73      37.49      17.20
C       8.18      23.25      32.61
C       7.53      24.51      32.68
C       9.61      25.68      32.60
C      10.32      24.45      32.54
C       9.59      23.24      32.55
C      10.34      26.88      32.59
C      11.84      29.26      32.58
C      12.50      28.01      32.52
C      11.76      26.82      32.52
C      10.43      29.26      32.65
C       2.28      35.24      17.94
C       1.58      34.81      19.09
C       0.82      32.84      17.98
C       1.50      33.22      16.80
C       2.23      34.43      16.78
C       0.09      31.63      17.98
C      -1.36      29.21      17.95
C      -0.66      29.64      16.79
C       0.06      30.85      16.80
C      -1.30      30.04      19.09
C      -0.86      22.15      30.80
C      -0.22      22.55      29.61
C      -2.29      23.04      28.54
C      -3.00      22.65      29.71
C      -2.27      22.21      30.83
C      -3.03      23.48      27.42
C      -4.52      24.36      25.20
C      -5.19      23.95      26.39
C      -4.44      23.52      27.50
C      -3.11      24.30      25.18
C      29.23      -6.58      25.32
C      29.94      -7.80      25.29
C      30.71      -7.50      27.53
C      30.03      -6.26      27.61
C      29.29      -5.80      26.50
C      31.45      -7.94      28.64
C      32.92      -8.80      30.89
C      32.22      -7.56      30.93
C      31.48      -7.13      29.81
C      32.85      -9.56      29.70
C       6.56       0.48      24.53
C       6.50      -0.35      23.39
C       5.11      -1.93      24.50
C       5.14      -1.15      25.68
C       5.87       0.06      25.69
C       4.38      -3.14      24.50
C       2.92      -5.55      24.55
C       2.98      -4.73      25.70
C       3.71      -3.53      25.69
C       3.62      -5.11      23.40
C      -6.63       0.42       9.91
C      -5.22       0.42       9.84
C      -5.14       2.81       9.90
C      -6.55       2.87       9.97
C      -7.29       1.67       9.97
C      -4.40       4.01       9.89
C      -2.97       6.44       9.88
C      -4.39       6.45       9.95
C      -5.11       5.24       9.95
C      -2.33       5.18       9.82
H       9.44       2.49      23.35
H       7.70       5.05      26.20
H      13.53       3.09      19.50
H      10.20       5.20      20.98
H      10.72       7.21      23.11
H      12.11       1.93      24.00
H      12.27       4.73      18.08
H      10.20       7.50      26.05
H       7.00       2.71      26.03
H      14.11       1.26      22.48
H      45.51      -3.11       8.85
H      41.87      -2.38      10.84
H      23.92      38.96       6.77
H      21.80      40.17      10.20
H      18.87      39.63      10.22
H      20.97      42.78       6.20
H      24.29      37.86       8.99
H      16.33      41.21      10.05
H      43.38      -0.54      10.29
H      22.44      41.34       4.60
H       2.10      20.45      32.22
H      -0.21      21.21      35.66
H       7.35      18.55      31.35
H       5.30      21.24      33.87
H       4.44      20.21      36.52
H       2.60      17.70      31.94
H       8.49      20.55      32.35
H       1.88      19.47      37.88
H      -1.17      21.51      33.42
H       4.55      16.46      30.75
H      28.76      -6.39      21.65
H      25.69      -3.87      23.05
H       6.02      38.17      16.59
H       2.61      38.81      18.98
H      25.16      -5.37      18.49
H      30.49      -5.00      19.93
H       3.98      36.72      16.39
H      24.66      -2.77      19.89
H      27.45      -4.66      24.57
H      32.01      -5.88      18.00
H      -4.23      27.21      19.14
H      -2.49      24.65      16.28
H      -8.32      26.60      22.99
H      -4.99      24.49      21.50
H      -5.51      22.49      19.37
H      -6.90      27.77      18.49
H      -7.07      24.96      24.41
H      -4.99      22.19      16.44
H      -1.79      26.99      16.45
H      -8.90      28.44      20.01
H     -40.30      32.79      33.64
H     -36.66      32.07      31.65
H     -18.72      -9.27      35.72
H     -16.59     -10.48      32.29
H     -13.67      -9.94      32.27
H     -15.77     -13.09      36.29
H     -19.08      -8.17      33.50
H     -11.12     -11.51      32.44
H     -38.17      30.22      32.21
H     -17.24     -11.65      37.89
H       3.10       9.24      10.26
H       5.41       8.47       6.83
H      -2.15      11.14      11.13
H      -0.10       8.45       8.62
H       0.76       9.48       5.97
H       2.60      11.99      10.54
H      -3.29       9.14      10.14
H       3.33      10.21       4.60
H       6.37       8.18       9.06
H       0.65      13.24      11.73
H     -23.55      36.08      20.84
H     -20.48      33.57      19.43
H      -0.81      -8.48      25.90
H       2.59      -9.11      23.51
H     -19.95      35.07      24.00
H     -25.27      34.69      22.57
H       1.22      -7.02      26.09
H     -19.45      32.46      22.60
H     -22.24      34.36      17.92
H     -26.79      35.55      24.50
H       9.86       8.95      27.93
H       6.13       9.21      25.97
H       8.56      14.55      31.12
H       4.85      14.80      29.13
H      13.99      41.43      10.57
H      39.88      -4.42      14.30
H       8.33      40.07      13.63
H      34.25      -5.80      17.34
H       0.66      19.22      39.94
H       0.60      23.41      39.43
H      23.37      37.29       2.97
H      23.34      41.48       2.46
H      23.21      -0.89      20.24
H      21.28      -3.88      22.51
H      17.64       2.59      20.10
H      15.72      -0.42      22.35
H      -4.67      20.72      14.57
H      -0.91      20.50      16.48
H      -3.37      15.13      11.38
H       0.36      14.91      13.33
H      -8.79     -11.67      31.92
H     -34.64      34.03      28.21
H      -3.14     -10.30      28.86
H     -29.02      35.42      25.16
H       4.55      10.47       2.56
H       4.58       6.27       3.05
H     -18.16      -7.61      39.52
H     -18.16     -11.80      40.03
H     -18.00      30.58      22.22
H     -16.06      33.60      20.01
H     -12.44      27.09      22.36
H     -10.50      30.13      20.17
H      11.41       5.72      16.04
H       7.80       5.12      18.14
H       7.98       7.78      10.82
H       4.40       7.17      12.96
H     -27.04      36.67      10.73
H     -28.14      40.14      12.87
H     -23.59      34.60      15.93
H     -24.72      38.08      18.03
H      10.10      22.35      32.51
H       6.51      24.57      32.73
H     -39.00      27.97      32.49
H       9.91      30.14      32.71
H       2.71      34.72      15.93
H       1.59      35.36      19.95
H      -0.70      29.08      15.94
H      -1.79      29.78      19.95
H      -2.78      21.91      31.67
H       0.80      22.52      29.53
H      -6.21      23.97      26.44
H      -2.59      24.57      24.35
H      28.81      -4.90      26.55
H      29.93      -8.39      24.46
H     -20.27      -6.98      31.76
H      33.34     -10.45      29.62
H       5.90       0.62      26.55
H       7.00      -0.09      22.53
H       2.49      -5.01      26.56
H       3.62      -5.67      22.54
H      -8.32       1.72      10.00
H      -4.70      -0.45       9.78
H      -4.90       7.34       9.98
H      -1.31       5.12       9.76
N       6.58      10.73      27.28
N       6.02      13.19      28.67
N       9.29      12.30      29.94
N       9.55      11.18      29.30
N       8.24       7.74      26.15
N       6.46      16.02      30.96
N      37.90      -4.99      14.35
N      35.43      -5.60      15.68
N      10.50      40.56      12.20
N      11.63      40.83      11.59
N      40.37      -4.49      11.76
N       7.83      40.14      16.14
N       0.24      22.71      41.33
N      23.73      40.36       0.79
N      23.94      36.77       0.44
N       0.13      19.29      42.51
N       0.97      21.21      38.14
N      23.00      39.48       4.27
N      20.13      -2.26      21.97
N      17.69      -0.74      21.90
N      19.97       1.35      20.03
N      21.08       0.66      20.05
N      23.55      -3.28      21.44
N      15.38       2.00      21.17
N      -1.37      18.97      15.18
N      -0.81      16.52      13.79
N      -4.10      17.38      12.56
N      -4.36      18.49      13.20
N      -3.03      21.96      16.33
N      -1.26      13.68      11.53
N     -32.68      34.63      28.15
N     -30.21      35.24      26.82
N      -5.31     -10.78      30.28
N      -6.44     -11.05      30.89
N     -35.15      34.17      30.74
N      -2.62     -10.45      26.35
N       4.95       6.97       1.15
N     -18.54     -10.68      41.70
N     -18.72      -7.08      42.05
N     -19.00      -6.93      43.32
N       4.23       8.48       4.35
N     -17.80      -9.79      38.22
N     -14.91      31.97      20.54
N     -12.48      30.44      20.60
N     -14.77      28.33      22.43
N     -15.88      29.03      22.41
N     -18.34      32.98      21.05
N     -10.17      27.69      21.32
N       7.63       5.81      16.22
N       6.14       6.71      13.95
N       9.56       6.97      12.78
N      10.24       6.56      13.83
N      10.33       4.93      18.39
N       5.29       7.97      10.70
N     -26.92      38.81      13.85
N     -25.43      37.91      16.11
N     -24.90      35.24      13.73
N     -25.59      35.65      12.69
N      24.08      38.98      10.61
N     -23.39      35.92      18.29
N       8.25      25.66      32.67
N       9.74      28.10      32.66
N      12.35      25.60      32.47
N      11.67      24.48      32.48
N       7.40      22.17      32.65
N     -40.08      30.45      32.63
N       0.89      33.64      19.08
N      -0.59      31.20      19.08
N       0.74      31.29      15.71
N       1.41      32.42      15.71
N       2.92      36.41      18.03
N      -2.10      28.12      18.03
N      -0.94      22.98      28.54
N      -2.42      23.87      26.27
N      -5.04      23.12      28.66
N      -4.36      22.71      29.70
N      -0.09      21.71      31.78
N      -5.13      24.76      24.09
N      30.64      -8.21      26.38
N      32.13      -9.12      28.64
N      30.80      -5.95      29.80
N      30.12      -5.54      28.76
N      28.60      -6.22      24.20
N     -18.87      -9.29      31.88
N       5.79      -1.50      23.41
N       4.32      -3.95      23.41
N       3.79      -2.72      26.78
N       4.46      -1.59      26.77
N       7.31       1.58      24.45
N       2.29      -6.71      24.46
N      -4.53       1.59       9.84
N      -3.05       4.03       9.83
N      -6.47       5.21      10.01
N      -7.15       4.09      10.02
N      45.29      -0.76       9.87
N      -2.20       7.52       9.84
O      11.17       6.61      23.76
O      12.59       2.78      23.92
O      18.64      40.09       9.39
O      20.53      41.90       6.25
O       3.92      19.43      36.20
O       3.17      17.45      32.70
O      25.89      -4.73      18.61
O      29.95      -4.77      19.14
O      -5.96      23.08      18.73
O      -7.38      26.92      18.57
O     -13.43     -10.40      33.10
O     -15.33     -12.22      36.24
O       1.28      10.26       6.28
O       2.03      12.24       9.78
O     -20.68      34.42      23.88
O     -24.74      34.46      23.36
