80

P       4.82       9.10      10.30
P       0.24      10.29       7.52
P       8.79      16.08      11.18
P       4.21      17.13       8.37
H       4.44       8.91      14.55
H       2.75      18.52       6.56
H       4.48      18.91       6.20
H       2.50      17.34       4.46
H       3.30      18.93       4.10
H       4.28      17.42       4.14
H      -0.66      13.12       4.97
H      10.35      16.51      13.41
H       8.70      17.14      13.74
H       1.15      10.70       5.11
H       7.68      13.38      10.84
H       6.55      17.39       9.95
H       6.07      11.59      10.47
H       3.12      14.68       7.98
H       1.11      13.06       5.11
H      11.05      16.98      17.49
H      11.75      16.05      16.14
H      10.64      15.24      17.35
H       8.12      15.30      17.46
H       8.74      13.71      16.78
H       7.00      14.08      16.81
H       0.23       8.62       4.14
H       1.02       9.79       2.96
H      -0.54       9.03       2.56
H       2.02      13.85       3.10
H       1.54      12.98       1.61
H       2.20      12.03       2.97
H       6.35       8.01      12.31
H       4.66       7.40      12.57
H       6.15       9.45      14.32
C       0.12      11.11       5.00
C       0.24      12.59       4.60
C       3.68      18.15       6.08
C       5.45      12.23       9.87
C       3.92      10.36       9.28
C       3.42      17.95       4.60
C       2.77       9.93       8.61
C       1.92      10.85       7.98
C       2.25      12.20       7.97
C       3.46      12.64       8.53
C       4.29      11.73       9.23
C       4.92      14.50       9.15
C       5.79      13.59       9.80
C       5.21      15.87       9.21
C       6.35      16.33       9.88
C       9.32      16.23      13.70
C       7.27      15.44      10.39
C       6.99      14.06      10.38
C       3.78      14.00       8.50
C       5.35       8.27      12.69
C       5.44       8.61      14.17
C      10.85      16.17      16.77
C       9.35      15.57      15.07
C       7.99      14.53      16.66
C       0.07       9.43       3.40
C       1.57      12.91       2.71
O      10.05      15.51      10.51
O       8.82      15.33      12.76
O       4.27       7.65      10.00
O       2.74      17.08       8.92
O       4.08      16.94       6.64
O       4.85       9.39      12.02
O       6.27       9.31       9.89
O       0.07       8.55       7.51
O      -0.58      10.77       8.72
O       9.74      16.56      16.00
O       8.04      15.11      15.38
O      -0.65      10.47       3.99
O      -0.63      11.04       6.20
O       0.26      12.75       3.19
O       4.73      18.75       8.81
O       8.94      17.85      11.30
F       5.88       7.52      14.89
F      10.21      14.48      14.99
F       2.40       8.63       8.65
F       1.35      13.10       7.50
