18

H       9.75       2.47       1.24
C       6.71       1.31       0.60
C       8.13       1.37       0.62
H       6.14       2.05       1.15
C       8.13      -0.64      -0.78
H       8.72      -1.40      -1.30
O       3.96      -0.51      -0.88
C       6.04       0.30      -0.09
C       4.55       0.23      -0.02
O      10.90      -0.50      -0.90
C      10.32       0.24      -0.03
O      10.94       0.89       0.89
O       3.97       0.89       0.92
C       6.75      -0.67      -0.81
H       6.21      -1.44      -1.35
N       8.74       2.39       1.32
C       8.85       0.34      -0.06
H       8.21       3.24       1.44
