19

Co       4.68      14.12       8.15
C       2.71      15.64       9.93
C       7.43      12.68       8.44
C       6.56      13.65      10.58
C       4.57      13.40       5.17
N       3.82      12.05       8.35
N       5.52      16.18       7.95
N       6.42      13.14       7.61
N       3.98      14.10       6.21
N       2.93      15.08       8.69
N       5.36      14.13      10.09
C       2.83      11.60       7.56
C       4.91      17.06       7.13
C       6.51      16.63       8.74
C       4.43      11.17       9.17
C       6.64      12.58       6.37
C       1.92      15.54       7.86
C       2.78      14.58       5.72
C       4.77      14.82      11.12
