1104

H       9.16       4.48       8.80
H       7.89       5.78       7.27
H       5.96       1.77       9.17
H       4.69       3.06       7.63
H       2.80       4.87       7.26
H       1.52       6.16       8.78
H       4.72       8.88       9.17
H       6.00       7.59       7.63
H       4.85       7.85       5.12
H       6.12       9.14       3.59
H       8.90       6.00       3.24
H       7.63       4.71       4.78
H       5.85       2.80       5.12
H       3.06       5.94       4.77
H       1.80       4.64       3.23
H       4.59       1.50       3.59
H      22.01       6.15      32.61
H      23.27       4.86      31.08
H      25.21       8.87      32.99
H      26.48       7.57      31.45
H      28.37       5.76      31.07
H      29.65       4.47      32.60
H      26.45       1.76      32.99
H      25.17       3.05      31.45
H      26.32       2.78      28.94
H      25.05       1.49      27.41
H      22.27       4.64      27.05
H      23.54       5.93      28.60
H      25.32       7.84      28.94
H      28.11       4.69      28.59
H      29.36       5.99      27.04
H      26.58       9.13      27.40
H       1.53      24.97      27.38
H       2.80      26.26      28.91
H       4.72      22.23      27.04
H       5.99      23.52      28.58
H       7.87      25.33      28.92
H       9.14      26.62      27.39
H       5.97      29.37      27.05
H       4.69      28.08      28.58
H       5.85      28.31      31.10
H       4.57      29.60      32.63
H       1.77      26.47      32.94
H       3.03      25.18      31.40
H       4.82      23.28      31.10
H       7.63      26.40      31.41
H       8.89      25.11      32.95
H       6.08      21.99      32.63
H      29.62      26.63       3.60
H      28.36      25.34       5.12
H      26.42      29.34       3.22
H      25.15      28.05       4.75
H      23.26      26.24       5.13
H      21.99      24.95       3.61
H      25.18      22.23       3.22
H      26.46      23.52       4.75
H      25.31      23.26       7.27
H      26.58      21.96       8.80
H      29.36      25.12       9.15
H      28.09      26.41       7.61
H      26.31      28.32       7.27
H      23.53      25.17       7.62
H      22.27      26.47       9.16
H      25.05      29.61       8.80
H      35.28      19.36      15.46
H      36.55      18.07      16.99
H      32.47      16.23      15.16
H      33.74      14.94      16.70
H      35.52      13.04      16.99
H      36.79      11.75      15.45
H      39.61      14.87      15.16
H      38.35      16.16      16.70
H      38.57      15.09      19.19
H      39.84      16.38      20.72
H      36.66      19.13      21.05
H      35.39      17.83      19.51
H      33.51      16.02      19.19
H      36.69      13.27      19.51
H      35.42      11.98      21.04
H      32.24      14.73      20.72
H      36.83      32.21      39.30
H      35.56      33.51      40.83
H      39.62      35.35      38.97
H      38.36      36.64      40.51
H      36.58      38.54      40.83
H      35.31      39.84      39.29
H      32.51      36.71      38.97
H      33.77      35.42      40.51
H      33.53      36.49      43.00
H      32.26      35.20      44.53
H      35.45      32.46      44.88
H      36.72      33.75      43.34
H      38.60      35.57      43.00
H      35.41      38.30      43.34
H      36.69      39.60      44.88
H      39.87      36.86      44.52
H      14.81      11.74      44.53
H      16.08      13.04      43.00
H      12.01      14.88      44.86
H      13.27      16.17      43.32
H      15.06      18.07      43.00
H      16.32      19.37      44.54
H      19.12      16.24      44.86
H      17.87      14.95      43.31
H      18.11      16.01      40.83
H      19.38      14.72      39.30
H      16.19      11.99      38.95
H      14.91      13.28      40.48
H      13.03      15.09      40.83
H      16.22      17.83      40.48
H      14.94      19.12      38.95
H      11.76      16.38      39.30
H      16.35      39.84      20.73
H      15.08      38.55      19.20
H      19.15      36.70      21.06
H      17.88      35.42      19.51
H      16.10      33.51      19.20
H      14.83      32.22      20.74
H      12.03      35.35      21.05
H      13.29      36.64      19.51
H      13.05      35.57      17.02
H      11.78      36.87      15.49
H      14.97      39.60      15.15
H      16.24      38.31      16.69
H      18.12      36.49      17.02
H      14.93      33.75      16.68
H      16.21      32.46      15.15
H      19.39      35.20      15.50
H      39.61       1.76       1.10
H       1.87      39.60      46.97
H       0.53       2.79       2.39
H       0.03      38.61      45.63
H      32.51       8.87      24.90
H      29.30      11.99      23.16
H      30.64       7.83      26.20
H      31.14      12.97      21.81
H      12.03      22.23      35.09
H       8.81      19.13      36.86
H      10.16      23.26      33.80
H      10.65      18.14      38.20
H      19.13      29.35      11.30
H      22.34      32.46      13.04
H      20.99      28.31      10.01
H      20.50      33.45      14.39
H       8.89      32.47      23.19
H      12.10      29.37      24.96
H      10.75      33.50      21.90
H      10.25      28.38      26.30
H      29.35      19.03      12.94
H      32.49      22.31      11.35
H      31.21      18.05      14.27
H      30.63      23.30      10.03
H      22.34      11.89      36.95
H      19.06       8.99      34.97
H      20.49      12.92      38.25
H      20.90       7.96      33.66
H      39.52      22.13      25.03
H       1.85      19.22      23.07
H       0.42      23.16      26.34
H       0.01      18.19      21.76
H      32.58      29.46       1.24
H      29.30      32.36      46.88
H      30.73      28.44       2.55
H      31.15      33.39      45.57
H      12.11       1.65      11.17
H       8.83      39.70      13.13
H      10.26       2.68       9.85
H      10.67      38.67      14.45
H       8.89      12.07      47.07
H      12.03       8.80       1.03
H      10.75      13.06      45.74
H      10.17       7.81       2.36
H      29.37      39.60      36.83
H      32.59       1.74      35.05
H      31.24      38.56      38.12
H      30.75       2.72      33.71
H      19.14       1.84      24.85
H      22.27      39.51      23.27
H      21.00       2.82      26.17
H      20.41      38.52      21.94
H      39.60      29.28      35.16
H       1.80      32.54      36.76
H       0.51      28.29      33.83
H      40.88      33.53      38.09
H       1.79      11.99      13.02
H      39.53       8.90      11.23
H      40.88      13.02      14.31
H       0.42       7.92       9.89
H      19.05      22.21       1.15
H      22.26      19.12      47.00
H      20.89      23.20       2.50
H      20.40      18.09      45.71
H       9.16       4.48      17.80
H       7.89       5.78      16.27
H       5.96       1.77      18.17
H       4.69       3.06      16.63
H       2.80       4.87      16.26
H       1.52       6.16      17.78
H       4.72       8.88      18.17
H       6.00       7.59      16.63
H       4.85       7.85      14.12
H       6.12       9.14      12.59
H       8.90       6.00      12.24
H       7.63       4.71      13.78
H       5.85       2.80      14.12
H       3.06       5.94      13.77
H       1.80       4.64      12.23
H       4.59       1.50      12.59
H      22.01       6.15      41.61
H      23.27       4.86      40.08
H      25.21       8.87      41.99
H      26.48       7.57      40.45
H      28.37       5.76      40.07
H      29.65       4.47      41.60
H      26.45       1.76      41.99
H      25.17       3.05      40.45
H      26.32       2.78      37.94
H      25.05       1.49      36.41
H      22.27       4.64      36.05
H      23.54       5.93      37.60
H      25.32       7.84      37.94
H      28.11       4.69      37.59
H      29.36       5.99      36.04
H      26.58       9.13      36.40
H       1.53      24.97      36.38
H       2.80      26.26      37.91
H       4.72      22.23      36.04
H       5.99      23.52      37.58
H       7.87      25.33      37.92
H       9.14      26.62      36.39
H       5.97      29.37      36.05
H       4.69      28.08      37.58
H       5.85      28.31      40.10
H       4.57      29.60      41.63
H       1.77      26.47      41.94
H       3.03      25.18      40.40
H       4.82      23.28      40.10
H       7.63      26.40      40.41
H       8.89      25.11      41.95
H       6.08      21.99      41.63
H      29.62      26.63      12.60
H      28.36      25.34      14.12
H      26.42      29.34      12.22
H      25.15      28.05      13.75
H      23.26      26.24      14.13
H      21.99      24.95      12.61
H      25.18      22.23      12.22
H      26.46      23.52      13.75
H      25.31      23.26      16.27
H      26.58      21.96      17.80
H      29.36      25.12      18.15
H      28.09      26.41      16.61
H      26.31      28.32      16.27
H      23.53      25.17      16.62
H      22.27      26.47      18.16
H      25.05      29.61      17.80
H      35.28      19.36      24.46
H      36.55      18.07      25.99
H      32.47      16.23      24.16
H      33.74      14.94      25.70
H      35.52      13.04      25.99
H      36.79      11.75      24.45
H      39.61      14.87      24.16
H      38.35      16.16      25.70
H      38.57      15.09      28.19
H      39.84      16.38      29.72
H      36.66      19.13      30.05
H      35.39      17.83      28.51
H      33.51      16.02      28.19
H      36.69      13.27      28.51
H      35.42      11.98      30.04
H      32.24      14.73      29.72
H      36.83      32.21       0.67
H      35.56      33.51       2.20
H      39.62      35.35       0.34
H      38.36      36.64       1.89
H      36.58      38.54       2.20
H      35.31      39.84       0.67
H      32.51      36.71       0.34
H      33.77      35.42       1.89
H      33.53      36.49       4.38
H      32.26      35.20       5.90
H      35.45      32.46       6.26
H      36.72      33.75       4.72
H      38.60      35.57       4.37
H      35.41      38.30       4.72
H      36.69      39.60       6.25
H      39.87      36.86       5.90
H      14.81      11.74       5.91
H      16.08      13.04       4.37
H      12.01      14.88       6.23
H      13.27      16.17       4.69
H      15.06      18.07       4.37
H      16.32      19.37       5.91
H      19.12      16.24       6.23
H      17.87      14.95       4.69
H      18.11      16.01       2.20
H      19.38      14.72       0.67
H      16.19      11.99       0.32
H      14.91      13.28       1.86
H      13.03      15.09       2.20
H      16.22      17.83       1.86
H      14.94      19.12       0.32
H      11.76      16.38       0.68
H      16.35      39.84      29.73
H      15.08      38.55      28.20
H      19.15      36.70      30.06
H      17.88      35.42      28.51
H      16.10      33.51      28.20
H      14.83      32.22      29.74
H      12.03      35.35      30.05
H      13.29      36.64      28.51
H      13.05      35.57      26.02
H      11.78      36.87      24.49
H      14.97      39.60      24.15
H      16.24      38.31      25.69
H      18.12      36.49      26.02
H      14.93      33.75      25.68
H      16.21      32.46      24.15
H      19.39      35.20      24.50
H      39.61       1.76      10.10
H       1.87      39.60       8.35
H       0.53       2.79      11.39
H       0.03      38.61       7.00
H      32.51       8.87      33.90
H      29.30      11.99      32.16
H      30.64       7.83      35.20
H      31.14      12.97      30.81
H      12.03      22.23      44.09
H       8.81      19.13      45.86
H      10.16      23.26      42.80
H      10.65      18.14      47.20
H      19.13      29.35      20.30
H      22.34      32.46      22.04
H      20.99      28.31      19.01
H      20.50      33.45      23.39
H       8.89      32.47      32.19
H      12.10      29.37      33.96
H      10.75      33.50      30.90
H      10.25      28.38      35.30
H      29.35      19.03      21.94
H      32.49      22.31      20.35
H      31.21      18.05      23.27
H      30.63      23.30      19.03
H      22.34      11.89      45.95
H      19.06       8.99      43.97
H      20.49      12.92      47.25
H      20.90       7.96      42.66
H      39.52      22.13      34.03
H       1.85      19.22      32.07
H       0.42      23.16      35.34
H       0.01      18.19      30.76
H      32.58      29.46      10.24
H      29.30      32.36       8.26
H      30.73      28.44      11.55
H      31.15      33.39       6.95
H      12.11       1.65      20.17
H       8.83      39.70      22.13
H      10.26       2.68      18.85
H      10.67      38.67      23.45
H       8.89      12.07       8.45
H      12.03       8.80      10.03
H      10.75      13.06       7.12
H      10.17       7.81      11.36
H      29.37      39.60      45.83
H      32.59       1.74      44.05
H      31.24      38.56      47.12
H      30.75       2.72      42.71
H      19.14       1.84      33.85
H      22.27      39.51      32.27
H      21.00       2.82      35.17
H      20.41      38.52      30.94
H      39.60      29.28      44.16
H       1.80      32.54      45.76
H       0.51      28.29      42.83
H      40.88      33.53      47.09
H       1.79      11.99      22.02
H      39.53       8.90      20.23
H      40.88      13.02      23.31
H       0.42       7.92      18.89
H      19.05      22.21      10.15
H      22.26      19.12       8.37
H      20.89      23.20      11.50
H      20.40      18.09       7.08
C       3.04       2.92       3.30
C       2.64       4.23       3.65
C       3.39       4.99       4.57
C       4.54       4.47       5.22
C       4.98       3.19       4.77
C       4.24       2.43       3.85
C       5.35       5.32       6.20
C       6.16       6.18       5.22
C       7.31       5.65       4.57
C       8.06       6.41       3.66
C       7.66       7.72       3.31
C       6.46       8.22       3.85
C       5.72       7.45       4.77
C       4.50       6.15       7.18
C       6.19       4.50       7.18
C       7.48       4.91       7.62
C       8.23       4.15       8.53
C       7.70       2.97       9.10
C       6.39       2.60       8.76
C       5.64       3.37       7.84
C       3.21       5.74       7.61
C       2.45       6.49       8.52
C       2.98       7.68       9.09
C       4.29       8.05       8.75
C       5.04       7.28       7.84
C      28.13       7.71      27.12
C      28.53       6.40      27.46
C      27.78       5.64      28.38
C      26.63       6.16      29.03
C      26.19       7.44      28.59
C      26.93       8.21      27.67
C      25.82       5.31      30.02
C      25.01       4.46      29.04
C      23.86       4.98      28.39
C      23.11       4.22      27.47
C      23.50       2.91      27.12
C      24.70       2.42      27.67
C      25.45       3.18      28.59
C      26.67       4.49      31.00
C      24.98       6.13      31.00
C      23.69       5.73      31.43
C      22.94       6.49      32.35
C      23.46       7.67      32.91
C      24.78       8.03      32.57
C      25.53       7.27      31.66
C      27.96       4.90      31.42
C      28.72       4.14      32.34
C      28.19       2.95      32.90
C      26.87       2.59      32.57
C      26.12       3.35      31.65
C       7.64      23.40      32.90
C       8.05      24.70      32.54
C       7.31      25.46      31.62
C       6.15      24.94      30.98
C       5.70      23.67      31.44
C       6.44      22.91      32.36
C       5.34      25.80      30.00
C       4.52      26.65      30.98
C       3.36      26.13      31.62
C       2.61      26.89      32.53
C       3.02      28.19      32.89
C       4.22      28.68      32.36
C       4.97      27.92      31.44
C       6.18      26.62      29.02
C       4.50      24.97      29.02
C       3.21      25.39      28.57
C       2.46      24.63      27.65
C       2.98      23.43      27.10
C       4.29      23.06      27.45
C       5.04      23.83      28.37
C       7.46      26.20      28.58
C       8.22      26.96      27.66
C       7.70      28.16      27.11
C       6.39      28.53      27.46
C       5.64      27.77      28.37
C      23.50      28.19       9.09
C      23.10      26.88       8.74
C      23.85      26.12       7.82
C      25.00      26.64       7.17
C      25.44      27.92       7.61
C      24.70      28.68       8.54
C      25.81      25.79       6.19
C      26.62      24.93       7.17
C      27.77      25.46       7.82
C      28.52      24.70       8.73
C      28.13      23.39       9.08
C      26.93      22.89       8.53
C      26.18      23.66       7.61
C      24.97      24.97       5.21
C      26.65      26.61       5.21
C      27.94      26.20       4.77
C      28.69      26.96       3.86
C      28.17      28.15       3.30
C      26.85      28.51       3.63
C      26.10      27.75       4.55
C      23.67      25.37       4.78
C      22.92      24.62       3.87
C      23.44      23.43       3.30
C      24.76      23.07       3.64
C      25.51      23.83       4.55
C      33.68      13.19      20.99
C      34.99      12.82      20.64
C      35.74      13.58      19.72
C      35.20      14.73      19.08
C      33.92      15.15      19.53
C      33.17      14.39      20.45
C      36.04      15.55      18.10
C      36.88      16.38      19.08
C      36.34      17.52      19.72
C      37.08      18.29      20.64
C      38.40      17.92      20.99
C      38.92      16.72      20.45
C      38.16      15.96      19.53
C      36.86      14.70      17.12
C      35.23      16.40      17.12
C      35.67      17.67      16.66
C      34.93      18.44      15.74
C      33.72      17.95      15.20
C      33.31      16.65      15.57
C      34.07      15.89      16.48
C      36.41      13.43      16.66
C      37.15      12.67      15.73
C      38.36      13.16      15.20
C      38.77      14.46      15.57
C      38.02      15.22      16.48
C      38.43      38.39      44.81
C      37.12      38.76      44.47
C      36.37      37.99      43.55
C      36.91      36.85      42.90
C      38.19      36.44      43.34
C      38.95      37.19      44.26
C      36.06      36.03      41.92
C      35.22      35.20      42.90
C      35.77      34.06      43.56
C      35.02      33.30      44.47
C      33.71      33.67      44.82
C      33.18      34.86      44.26
C      33.94      35.62      43.35
C      35.25      36.88      40.94
C      36.88      35.17      40.94
C      36.43      33.90      40.49
C      37.17      33.14      39.57
C      38.38      33.63      39.03
C      38.78      34.93      39.38
C      38.03      35.69      40.30
C      35.70      38.15      40.49
C      34.96      38.91      39.56
C      33.75      38.43      39.03
C      33.35      37.12      39.38
C      34.09      36.36      40.30
C      13.20      17.91      39.01
C      14.52      18.29      39.36
C      15.27      17.52      40.27
C      14.73      16.38      40.92
C      13.44      15.96      40.48
C      12.69      16.72      39.57
C      15.57      15.56      41.91
C      16.41      14.73      40.92
C      15.87      13.59      40.27
C      16.61      12.83      39.36
C      17.93      13.20      39.01
C      18.45      14.39      39.57
C      17.70      15.14      40.48
C      16.38      16.41      42.88
C      14.76      14.70      42.89
C      15.20      13.43      43.34
C      14.46      12.67      44.26
C      13.25      13.16      44.80
C      12.85      14.46      44.45
C      13.60      15.22      43.53
C      15.93      17.68      43.34
C      16.67      18.44      44.26
C      17.88      17.96      44.80
C      18.29      16.65      44.44
C      17.54      15.89      43.53
C      17.95      33.67      15.21
C      16.63      33.30      15.56
C      15.89      34.06      16.47
C      16.43      35.21      17.12
C      17.71      35.62      16.68
C      18.47      34.86      15.76
C      15.59      36.03      18.10
C      14.75      36.86      17.12
C      15.29      38.00      16.47
C      14.55      38.76      15.56
C      13.23      38.39      15.21
C      12.71      37.20      15.76
C      13.46      36.44      16.68
C      14.77      35.18      19.08
C      16.40      36.88      19.08
C      15.96      38.15      19.54
C      16.70      38.92      20.46
C      17.90      38.43      21.00
C      18.31      37.12      20.64
C      17.56      36.36      19.73
C      15.22      33.91      19.54
C      14.48      33.14      20.46
C      13.27      33.63      21.00
C      12.86      34.94      20.64
C      13.61      35.70      19.72
C      40.31       1.10       0.74
C      40.77      40.18      46.94
C       1.17      40.25      47.34
C       0.71       1.17       1.14
C       1.17       2.12       2.04
C      40.32      39.24      46.03
C      31.81       9.52      24.54
C      31.35      11.40      23.12
C      29.99      11.33      23.52
C      30.46       9.46      24.95
C      30.00       8.51      25.85
C      31.79      12.34      22.21
C      11.33      21.58      35.46
C      10.87      19.71      36.89
C       9.51      19.78      36.49
C       9.97      21.64      35.06
C       9.52      22.60      34.16
C      11.31      18.77      37.80
C      19.82      30.00      11.66
C      20.28      31.87      13.08
C      21.64      31.81      12.68
C      21.18      29.94      11.26
C      21.63      28.99      10.36
C      19.84      32.82      13.99
C       9.58      31.82      23.56
C      10.04      29.95      24.99
C      11.40      30.02      24.59
C      10.94      31.89      23.16
C      11.40      32.84      22.26
C       9.59      29.01      25.90
C      30.04      19.72      12.61
C      30.46      21.65      11.25
C      31.81      21.62      11.68
C      31.38      19.69      13.04
C      31.85      18.73      13.93
C      30.00      22.61      10.36
C      21.62      11.28      36.54
C      21.13       9.48      35.03
C      19.77       9.59      35.38
C      20.26      11.39      36.89
C      19.82      12.32      37.82
C      21.57       8.55      34.10
C      40.24      21.52      24.62
C      40.73      19.72      23.12
C       1.14      19.83      23.48
C       0.65      21.63      24.98
C       1.09      22.56      25.91
C      40.29      18.79      22.19
C      31.87      30.07       0.82
C      31.37      31.86      46.94
C      30.01      31.75      47.29
C      30.50      29.96       1.18
C      30.06      29.03       2.11
C      31.81      32.79      46.01
C      11.40       1.05      11.58
C      10.90      40.20      13.09
C       9.54      40.31      12.73
C      10.03       1.16      11.22
C       9.60       2.09      10.29
C      11.34      39.27      14.01
C       9.57      11.39      47.40
C      10.00       9.46       1.14
C      11.35       9.49       0.71
C      10.92      11.42      46.97
C      11.38      12.37      46.08
C       9.54       8.50       2.02
C      30.07      40.24      36.47
C      30.53       1.16      35.03
C      31.89       1.09      35.42
C      31.42      40.18      36.86
C      31.88      39.23      37.76
C      30.08       2.10      34.11
C      19.82       1.15      24.52
C      20.24      40.17      23.16
C      21.59      40.19      23.60
C      21.16       1.17      24.96
C      21.63       2.13      25.84
C      19.78      39.21      22.28
C      40.28      29.96      35.49
C      40.71      31.89      36.86
C       1.11      31.85      36.43
C       0.68      29.93      35.06
C       1.14      28.98      34.17
C      40.25      32.84      37.75
C       1.10      11.34      12.65
C       0.63       9.48      11.21
C      40.23       9.55      11.60
C      40.69      11.41      13.04
C      40.23      12.36      13.94
C       1.08       8.54      10.29
C      19.74      21.57       0.78
C      20.21      19.70      46.97
C      21.56      19.77      47.36
C      21.10      21.63       1.18
C      21.55      22.58       2.09
C      19.75      18.76      46.07
C       3.04       2.92      12.30
C       2.64       4.23      12.65
C       3.39       4.99      13.57
C       4.54       4.47      14.22
C       4.98       3.19      13.77
C       4.24       2.43      12.85
C       5.35       5.32      15.20
C       6.16       6.18      14.22
C       7.31       5.65      13.57
C       8.06       6.41      12.66
C       7.66       7.72      12.31
C       6.46       8.22      12.85
C       5.72       7.45      13.77
C       4.50       6.15      16.18
C       6.19       4.50      16.18
C       7.48       4.91      16.62
C       8.23       4.15      17.53
C       7.70       2.97      18.10
C       6.39       2.60      17.76
C       5.64       3.37      16.84
C       3.21       5.74      16.61
C       2.45       6.49      17.52
C       2.98       7.68      18.09
C       4.29       8.05      17.75
C       5.04       7.28      16.84
C      28.13       7.71      36.12
C      28.53       6.40      36.46
C      27.78       5.64      37.38
C      26.63       6.16      38.03
C      26.19       7.44      37.59
C      26.93       8.21      36.67
C      25.82       5.31      39.02
C      25.01       4.46      38.04
C      23.86       4.98      37.39
C      23.11       4.22      36.47
C      23.50       2.91      36.12
C      24.70       2.42      36.67
C      25.45       3.18      37.59
C      26.67       4.49      40.00
C      24.98       6.13      40.00
C      23.69       5.73      40.43
C      22.94       6.49      41.35
C      23.46       7.67      41.91
C      24.78       8.03      41.57
C      25.53       7.27      40.66
C      27.96       4.90      40.42
C      28.72       4.14      41.34
C      28.19       2.95      41.90
C      26.87       2.59      41.57
C      26.12       3.35      40.65
C       7.64      23.40      41.90
C       8.05      24.70      41.54
C       7.31      25.46      40.62
C       6.15      24.94      39.98
C       5.70      23.67      40.44
C       6.44      22.91      41.36
C       5.34      25.80      39.00
C       4.52      26.65      39.98
C       3.36      26.13      40.62
C       2.61      26.89      41.53
C       3.02      28.19      41.89
C       4.22      28.68      41.36
C       4.97      27.92      40.44
C       6.18      26.62      38.02
C       4.50      24.97      38.02
C       3.21      25.39      37.57
C       2.46      24.63      36.65
C       2.98      23.43      36.10
C       4.29      23.06      36.45
C       5.04      23.83      37.37
C       7.46      26.20      37.58
C       8.22      26.96      36.66
C       7.70      28.16      36.11
C       6.39      28.53      36.46
C       5.64      27.77      37.37
C      23.50      28.19      18.09
C      23.10      26.88      17.74
C      23.85      26.12      16.82
C      25.00      26.64      16.17
C      25.44      27.92      16.61
C      24.70      28.68      17.54
C      25.81      25.79      15.19
C      26.62      24.93      16.17
C      27.77      25.46      16.82
C      28.52      24.70      17.73
C      28.13      23.39      18.08
C      26.93      22.89      17.53
C      26.18      23.66      16.61
C      24.97      24.97      14.21
C      26.65      26.61      14.21
C      27.94      26.20      13.77
C      28.69      26.96      12.86
C      28.17      28.15      12.30
C      26.85      28.51      12.63
C      26.10      27.75      13.55
C      23.67      25.37      13.78
C      22.92      24.62      12.87
C      23.44      23.43      12.30
C      24.76      23.07      12.64
C      25.51      23.83      13.55
C      33.68      13.19      29.99
C      34.99      12.82      29.64
C      35.74      13.58      28.72
C      35.20      14.73      28.08
C      33.92      15.15      28.53
C      33.17      14.39      29.45
C      36.04      15.55      27.10
C      36.88      16.38      28.08
C      36.34      17.52      28.72
C      37.08      18.29      29.64
C      38.40      17.92      29.99
C      38.92      16.72      29.45
C      38.16      15.96      28.53
C      36.86      14.70      26.12
C      35.23      16.40      26.12
C      35.67      17.67      25.66
C      34.93      18.44      24.74
C      33.72      17.95      24.20
C      33.31      16.65      24.57
C      34.07      15.89      25.48
C      36.41      13.43      25.66
C      37.15      12.67      24.73
C      38.36      13.16      24.20
C      38.77      14.46      24.57
C      38.02      15.22      25.48
C      38.43      38.39       6.19
C      37.12      38.76       5.84
C      36.37      37.99       4.93
C      36.91      36.85       4.28
C      38.19      36.44       4.72
C      38.95      37.19       5.63
C      36.06      36.03       3.30
C      35.22      35.20       4.28
C      35.77      34.06       4.93
C      35.02      33.30       5.85
C      33.71      33.67       6.19
C      33.18      34.86       5.64
C      33.94      35.62       4.72
C      35.25      36.88       2.32
C      36.88      35.17       2.32
C      36.43      33.90       1.86
C      37.17      33.14       0.94
C      38.38      33.63       0.40
C      38.78      34.93       0.76
C      38.03      35.69       1.67
C      35.70      38.15       1.86
C      34.96      38.91       0.94
C      33.75      38.43       0.40
C      33.35      37.12       0.76
C      34.09      36.36       1.67
C      13.20      17.91       0.39
C      14.52      18.29       0.73
C      15.27      17.52       1.65
C      14.73      16.38       2.30
C      13.44      15.96       1.86
C      12.69      16.72       0.94
C      15.57      15.56       3.28
C      16.41      14.73       2.30
C      15.87      13.59       1.65
C      16.61      12.83       0.73
C      17.93      13.20       0.39
C      18.45      14.39       0.94
C      17.70      15.14       1.86
C      16.38      16.41       4.26
C      14.76      14.70       4.26
C      15.20      13.43       4.71
C      14.46      12.67       5.64
C      13.25      13.16       6.18
C      12.85      14.46       5.82
C      13.60      15.22       4.90
C      15.93      17.68       4.71
C      16.67      18.44       5.64
C      17.88      17.96       6.18
C      18.29      16.65       5.82
C      17.54      15.89       4.90
C      17.95      33.67      24.21
C      16.63      33.30      24.56
C      15.89      34.06      25.47
C      16.43      35.21      26.12
C      17.71      35.62      25.68
C      18.47      34.86      24.76
C      15.59      36.03      27.10
C      14.75      36.86      26.12
C      15.29      38.00      25.47
C      14.55      38.76      24.56
C      13.23      38.39      24.21
C      12.71      37.20      24.76
C      13.46      36.44      25.68
C      14.77      35.18      28.08
C      16.40      36.88      28.08
C      15.96      38.15      28.54
C      16.70      38.92      29.46
C      17.90      38.43      30.00
C      18.31      37.12      29.64
C      17.56      36.36      28.73
C      15.22      33.91      28.54
C      14.48      33.14      29.46
C      13.27      33.63      30.00
C      12.86      34.94      29.64
C      13.61      35.70      28.72
C      40.31       1.10       9.74
C      40.77      40.18       8.31
C       1.17      40.25       8.71
C       0.71       1.17      10.14
C       1.17       2.12      11.04
C      40.32      39.24       7.40
C      31.81       9.52      33.54
C      31.35      11.40      32.12
C      29.99      11.33      32.52
C      30.46       9.46      33.95
C      30.00       8.51      34.85
C      31.79      12.34      31.21
C      11.33      21.58      44.46
C      10.87      19.71      45.89
C       9.51      19.78      45.49
C       9.97      21.64      44.06
C       9.52      22.60      43.16
C      11.31      18.77      46.80
C      19.82      30.00      20.66
C      20.28      31.87      22.08
C      21.64      31.81      21.68
C      21.18      29.94      20.26
C      21.63      28.99      19.36
C      19.84      32.82      22.99
C       9.58      31.82      32.56
C      10.04      29.95      33.99
C      11.40      30.02      33.59
C      10.94      31.89      32.16
C      11.40      32.84      31.26
C       9.59      29.01      34.90
C      30.04      19.72      21.61
C      30.46      21.65      20.25
C      31.81      21.62      20.68
C      31.38      19.69      22.04
C      31.85      18.73      22.93
C      30.00      22.61      19.36
C      21.62      11.28      45.54
C      21.13       9.48      44.03
C      19.77       9.59      44.38
C      20.26      11.39      45.89
C      19.82      12.32      46.82
C      21.57       8.55      43.10
C      40.24      21.52      33.62
C      40.73      19.72      32.12
C       1.14      19.83      32.48
C       0.65      21.63      33.98
C       1.09      22.56      34.91
C      40.29      18.79      31.19
C      31.87      30.07       9.82
C      31.37      31.86       8.31
C      30.01      31.75       8.67
C      30.50      29.96      10.18
C      30.06      29.03      11.11
C      31.81      32.79       7.38
C      11.40       1.05      20.58
C      10.90      40.20      22.09
C       9.54      40.31      21.73
C      10.03       1.16      20.22
C       9.60       2.09      19.29
C      11.34      39.27      23.01
C       9.57      11.39       8.77
C      10.00       9.46      10.14
C      11.35       9.49       9.71
C      10.92      11.42       8.34
C      11.38      12.37       7.45
C       9.54       8.50      11.02
C      30.07      40.24      45.47
C      30.53       1.16      44.03
C      31.89       1.09      44.42
C      31.42      40.18      45.86
C      31.88      39.23      46.76
C      30.08       2.10      43.11
C      19.82       1.15      33.52
C      20.24      40.17      32.16
C      21.59      40.19      32.60
C      21.16       1.17      33.96
C      21.63       2.13      34.84
C      19.78      39.21      31.28
C      40.28      29.96      44.49
C      40.71      31.89      45.86
C       1.11      31.85      45.43
C       0.68      29.93      44.06
C       1.14      28.98      43.17
C      40.25      32.84      46.75
C       1.10      11.34      21.65
C       0.63       9.48      20.21
C      40.23       9.55      20.60
C      40.69      11.41      22.04
C      40.23      12.36      22.94
C       1.08       8.54      19.29
C      19.74      21.57       9.78
C      20.21      19.70       8.34
C      21.56      19.77       8.74
C      21.10      21.63      10.18
C      21.55      22.58      11.09
C      19.75      18.76       7.44
N       8.36       2.18       9.95
N       2.32       8.47       9.94
N       2.39       2.13       2.45
N       8.32       8.51       2.46
N      22.81       8.46      33.77
N      28.85       2.17      33.76
N      28.78       8.50      26.26
N      22.84       2.12      26.27
N       2.33      22.65      26.25
N       8.36      28.94      26.26
N       8.30      22.61      33.75
N       2.36      28.98      33.74
N      28.82      28.93       2.44
N      22.78      22.64       2.45
N      22.85      28.98       9.94
N      28.79      22.60       9.93
N      33.06      18.74      14.36
N      39.01      12.37      14.35
N      33.03      12.40      21.85
N      39.05      18.70      21.85
N      39.04      32.84      38.18
N      33.10      39.21      38.17
N      39.09      39.17      45.67
N      33.05      32.88      45.68
N      12.60      12.37      45.65
N      18.53      18.74      45.66
N      12.55      18.70      38.16
N      18.58      12.41      38.15
N      18.56      39.22      21.85
N      12.62      32.85      21.85
N      18.60      32.88      14.36
N      12.58      39.18      14.35
N      39.92       0.15      47.48
N       1.56       0.25       0.60
N      32.20      10.48      23.66
N      29.61      10.38      24.41
N      11.72      20.63      36.35
N       9.12      20.73      35.61
N      19.44      30.96      12.55
N      22.03      30.86      11.80
N       9.19      30.87      24.44
N      11.79      30.97      23.71
N      29.64      20.69      11.74
N      32.21      20.65      12.55
N      22.00      10.34      35.63
N      19.39      10.53      36.29
N      39.86      20.58      23.71
N       1.52      20.77      24.38
N      32.24      31.01      47.54
N      29.63      30.82       0.58
N      11.77       0.11      12.49
N       9.16       0.30      11.82
N       9.17      10.42       0.64
N      11.75      10.45      47.46
N      29.68       0.25      35.58
N      32.27       0.14      36.31
N      19.42       0.18      23.66
N      21.99       0.21      24.46
N      39.88      30.93      36.36
N       1.51      30.89      35.56
N       1.48      10.39      11.76
N      39.84      10.50      12.49
N      19.36      20.62      47.52
N      21.95      20.72       0.63
N       8.36       2.18      18.95
N       2.32       8.47      18.94
N       2.39       2.13      11.45
N       8.32       8.51      11.46
N      22.81       8.46      42.77
N      28.85       2.17      42.76
N      28.78       8.50      35.26
N      22.84       2.12      35.27
N       2.33      22.65      35.25
N       8.36      28.94      35.26
N       8.30      22.61      42.75
N       2.36      28.98      42.74
N      28.82      28.93      11.44
N      22.78      22.64      11.45
N      22.85      28.98      18.94
N      28.79      22.60      18.93
N      33.06      18.74      23.36
N      39.01      12.37      23.35
N      33.03      12.40      30.85
N      39.05      18.70      30.85
N      39.04      32.84      47.18
N      33.10      39.21      47.17
N      39.09      39.17       7.04
N      33.05      32.88       7.05
N      12.60      12.37       7.03
N      18.53      18.74       7.03
N      12.55      18.70      47.16
N      18.58      12.41      47.15
N      18.56      39.22      30.85
N      12.62      32.85      30.85
N      18.60      32.88      23.36
N      12.58      39.18      23.35
N      39.92       0.15       8.85
N       1.56       0.25       9.60
N      32.20      10.48      32.66
N      29.61      10.38      33.41
N      11.72      20.63      45.35
N       9.12      20.73      44.61
N      19.44      30.96      21.55
N      22.03      30.86      20.80
N       9.19      30.87      33.44
N      11.79      30.97      32.71
N      29.64      20.69      20.74
N      32.21      20.65      21.55
N      22.00      10.34      44.63
N      19.39      10.53      45.29
N      39.86      20.58      32.71
N       1.52      20.77      33.38
N      32.24      31.01       8.92
N      29.63      30.82       9.58
N      11.77       0.11      21.49
N       9.16       0.30      20.82
N       9.17      10.42       9.64
N      11.75      10.45       8.84
N      29.68       0.25      44.58
N      32.27       0.14      45.31
N      19.42       0.18      32.66
N      21.99       0.21      33.46
N      39.88      30.93      45.36
N       1.51      30.89      44.56
N       1.48      10.39      20.76
N      39.84      10.50      21.49
N      19.36      20.62       8.89
N      21.95      20.72       9.63
