30

Nb       5.32       7.81      11.24
Nb       4.98       4.61       9.80
Nb       7.66       5.33      11.75
Nb       8.07       4.95       8.33
Nb       8.42       8.15       9.78
Nb       5.73       7.43       7.82
C       3.21       9.57      12.99
C       2.47       2.58       9.33
C       8.97       4.03      14.44
C      10.18       3.19       6.59
C      10.93      10.18      10.24
C       4.42       8.73       5.13
N       4.06       8.96      12.43
N       3.40       3.23       9.67
N       8.55       4.52      13.44
N       9.33       3.80       7.14
N      10.00       9.53       9.90
N       4.84       8.24       6.13
Cl       7.06       9.61      11.30
Cl       4.27       8.90       9.24
Cl       3.52       6.05      11.25
Cl       6.31       6.77      13.29
Cl       3.95       5.68       7.77
Cl       5.93       3.52      11.83
Cl       6.33       3.15       8.28
Cl       9.12       3.86      10.33
Cl       9.87       6.71       8.32
Cl       7.08       5.99       6.28
Cl       9.44       7.08      11.80
Cl       7.46       9.24       7.75
