396

C       8.74       3.46      52.86
C       8.72       2.70      51.67
C       9.48       1.52      51.56
C      10.28       1.06      52.63
C      10.31       1.84      53.81
C       9.57       3.03      53.92
C       9.54      13.60      52.66
C       8.72      13.62      53.82
C       7.47      12.97      53.83
C       6.97      12.33      52.68
C       7.77      12.32      51.52
C       9.02      12.95      51.50
C      11.88      14.20      51.30
C      11.98      14.30      53.86
C      11.89      13.23      54.77
C      12.86      13.04      55.77
C      13.99      13.89      55.86
C      14.11      14.93      54.92
C      13.13       0.11      53.94
C      12.58       0.18      50.61
C      13.72      14.92      49.84
C      14.18      13.59      49.72
C      13.44      12.56      50.33
C      12.32      12.86      51.13
C      15.00      13.75      56.93
C       0.45      13.26      49.07
C       5.61      11.72      52.70
C       7.84       4.64      53.04
C       3.65       6.52      22.79
C       2.89       6.41      21.60
C       1.74       5.60      21.55
C       1.32       4.86      22.68
C       2.09       4.96      23.86
C       3.24       5.76      23.91
C      13.84       5.50      22.84
C      13.81       6.25      24.03
C      13.16       7.50      24.09
C      12.55       8.05      22.94
C      12.59       7.31      21.74
C      13.23       6.06      21.69
C      14.46       3.19      21.42
C      14.72       3.05      23.96
C      13.64       3.02      24.87
C      13.53       1.99      25.83
C      14.47       0.94      25.87
C       0.50       0.95      24.94
C       0.63       2.00      24.02
C       0.42       2.48      20.72
C       0.09       1.33      19.96
C      13.79       0.89      19.86
C      12.78       1.65      20.49
C      13.11       2.76      21.28
C      14.36      14.85      26.85
C      13.43      14.63      19.22
C      11.95       9.41      23.00
C       4.80       7.46      22.89
C       6.74       3.71       6.58
C       7.02       2.95       7.73
C       6.28       1.79       8.03
C       5.22       1.36       7.19
C       4.97       2.11       6.02
C       5.70       3.28       5.73
C       5.69      13.84       7.40
C       6.41      13.75       6.19
C       7.66      13.11       6.13
C       8.23      12.53       7.29
C       7.48      12.55       8.48
C       6.23      13.20       8.54
C       3.69      14.96       9.00
C       3.17      14.69       6.47
C       3.06      13.55       5.64
C       1.92      13.34       4.84
C       0.83      14.24       4.88
C       0.92       0.33       5.73
C       2.07       0.55       6.50
C       3.49       1.12       9.74
C       2.60       1.18      10.82
C       1.84       0.05      11.19
C       2.06      13.87      10.50
C       2.97      13.81       9.42
C      14.65      14.05       4.04
C       0.79       0.14      12.24
C       9.62      12.01       7.25
C       7.51       4.95       6.28
C      11.36       6.60      36.50
C      12.17       6.85      37.64
C      13.30       6.07      37.90
C      13.67       4.99      37.05
C      12.87       4.76      35.91
C      11.73       5.54      35.65
C       1.20       5.37      37.19
C       1.31       6.07      35.96
C       1.95       7.31      35.89
C       2.52       7.90      37.04
C       2.49       7.17      38.25
C       1.84       5.93      38.32
C      15.10       3.41      38.82
C       0.26       2.87      36.30
C       1.42       2.68      35.51
C       1.62       1.49      34.79
C       0.67       0.44      34.85
C      14.55       0.63      35.62
C      14.34       1.82      36.33
C      13.91       3.23      39.57
C      13.86       2.33      40.65
C      14.99       1.57      41.01
C       1.16       1.77      40.30
C       1.21       2.68      39.22
C       0.88      14.17      34.15
C      14.90       0.53      42.07
C       3.01       9.31      36.99
C      10.15       7.41      36.24
C       0.66      14.95      44.29
C       1.62      13.95      44.57
C       1.50      13.14      45.74
C       0.40      13.31      46.61
C      14.45      14.28      46.30
C      14.59       0.06      45.16
C       3.51      12.00      45.16
C       3.62      12.76      43.98
C       4.24      11.88      41.82
C       0.15      14.40      14.46
C      14.17      13.45      14.73
C      13.35      13.59      15.88
C      13.52      14.69      16.75
C      14.50       0.63      16.45
C       0.30       0.48      15.33
C      12.20      11.59      15.30
C      12.98      11.46      14.13
C      12.13      10.85      11.96
C      14.54       0.11       1.81
C      13.39      15.01       0.99
C      13.67      14.88      59.70
C      14.95      -0.07      59.10
C       1.06       0.05      59.93
C       0.78       0.20       1.20
C      11.30      14.70      59.49
C      11.01      14.82       0.77
C       9.51      13.56       2.19
C      14.98      14.11      31.87
C      14.76       0.35      31.29
C      14.96       0.55      29.90
C       0.33      14.51      29.08
C       0.56      13.25      29.66
C       0.37      13.05      31.04
C      14.40       2.86      30.16
C      14.21       2.68      31.55
C      13.46       5.03      32.00
C       7.42       6.94      52.37
C       6.15       7.28      51.86
C       5.52       8.50      52.25
C       6.16       9.37      53.17
C       7.42       9.01      53.69
C       8.04       7.82      53.29
C       3.63       7.94      50.91
C       4.23       6.72      50.54
C       3.18       4.55      50.35
C       7.16       7.72      22.35
C       7.56       9.00      21.90
C       8.77       9.58      22.38
C       9.57       8.88      23.32
C       9.15       7.62      23.78
C       7.97       7.04      23.30
C       8.33      11.53      21.09
C       7.12      10.97      20.63
C       4.98      12.07      20.34
C       7.99       7.19       7.10
C       9.21       7.53       7.73
C       9.83       8.78       7.46
C       9.23       9.69       6.55
C       8.03       9.33       5.91
C       7.41       8.10       6.19
C      11.63       8.19       8.91
C      11.02       6.95       9.19
C      12.06       4.78       9.42
C       7.89       7.85      37.01
C       7.48       9.07      37.60
C       6.22       9.63      37.28
C       5.36       8.98      36.37
C       5.77       7.77      35.78
C       7.01       7.20      36.10
C       6.71      11.49      38.69
C       7.96      10.94      39.02
C      10.09      12.06      39.29
H      12.75      12.26      56.43
H      11.12      12.55      54.72
H      14.92       0.53      54.95
H      13.26       0.89      53.30
H      12.35       1.17      50.75
H      14.26       0.65      49.43
H      13.77      11.59      50.30
H      11.90      12.09      51.66
H       9.53      12.98      50.62
H       7.43      11.88      50.66
H       6.90      13.02      54.68
H       9.01      14.12      54.66
H      10.81       1.53      54.65
H       9.38       0.97      50.70
H       8.11       2.98      50.89
H       0.94      13.54      56.49
H      14.76      12.90      57.59
H       1.06      14.16      48.94
H       1.02      12.61      49.75
H       5.29      11.41      51.70
H       4.90      12.48      53.03
H       9.58       3.53      54.81
H       7.97       5.05      54.04
H       6.81       4.29      52.97
H      12.73       1.99      26.47
H      12.89       3.72      24.84
H       1.19       0.20      24.94
H       1.42       1.95      23.37
H       1.41       2.69      20.85
H       0.85       0.79      19.54
H      11.81       1.33      20.47
H      12.36       3.20      21.82
H      13.29       5.60      20.78
H      12.18       7.69      20.89
H      13.17       8.02      24.97
H      14.30       5.93      24.88
H       1.80       4.51      24.74
H       1.19       5.61      20.69
H       3.15       6.97      20.78
H      14.22      13.93      26.28
H      13.46      14.97      27.46
H      14.32      14.00      19.10
H      12.77      14.08      19.89
H      11.70       9.78      22.00
H      12.71      10.09      23.40
H       3.75       5.83      24.80
H       5.17       7.47      23.92
H       4.43       8.47      22.68
H       1.88      12.51       4.24
H       3.80      12.84       5.61
H       0.15       1.00       5.79
H       2.08       1.39       7.10
H       3.93       2.00       9.45
H       2.45       2.08      11.29
H       1.51      13.04      10.73
H       3.03      12.93       8.90
H       5.79      13.29       9.46
H       7.87      12.16       9.35
H       8.19      13.13       5.26
H       6.09      14.23       5.34
H       4.26       1.83       5.34
H       6.54       1.27       8.87
H       7.78       3.23       8.37
H      13.79      13.91       4.70
H      14.73      13.15       3.43
H       0.73       1.16      12.62
H      14.86      14.95      11.78
H       9.95      11.65       8.23
H      10.27      12.85       6.99
H       5.48       3.80       4.87
H       7.18       5.38       5.33
H       8.56       4.67       6.17
H       2.48       1.37      34.25
H       2.17       3.38      35.49
H      13.85      14.92      35.70
H      13.49       1.89      36.90
H      13.03       3.67      39.29
H      12.97       2.19      41.13
H       1.99       1.22      40.52
H       2.08       2.73      38.69
H       1.74       5.50      39.25
H       2.87       7.59      39.10
H       1.93       7.83      35.00
H       0.82       5.73      35.12
H      13.10       4.03      35.23
H      13.86       6.30      38.73
H      11.93       7.62      38.27
H       0.94      13.39      34.92
H       1.83      14.15      33.61
H      13.88       0.47      42.46
H      15.13      14.59      41.62
H       3.33       9.66      37.97
H       2.16       9.94      36.69
H      11.17       5.33      34.81
H       9.71       7.13      35.28
H      10.45       8.46      36.15
H       4.19      11.27      45.38
H      13.89       0.78      44.98
H      13.64      14.41      46.91
H       5.16      13.39      42.89
H       3.71      10.95      42.02
H       5.12      11.65      41.22
H       3.59      12.55      41.25
H      14.54      11.91      47.74
H       0.78       1.74      43.50
H      11.46      10.91      15.52
H       1.02       1.17      15.15
H      14.62       1.44      17.06
H      13.61       9.91      13.05
H      11.19      11.38      12.14
H      11.90       9.97      11.35
H      12.80      11.50      11.40
H      12.12       0.56      17.88
H       1.99      14.28      13.69
H      10.48      14.63      58.88
H       1.61       0.32       1.78
H       1.98       0.14      59.51
H       9.60       0.57       1.92
H       9.65      12.65       1.60
H       8.48      13.57       2.56
H      10.18      13.54       3.05
H       0.78       0.61      57.38
H      13.69       0.83       3.52
H      14.28       3.76      29.71
H       0.54      12.12      31.44
H       0.87      12.46      29.08
H      14.67       3.81      33.12
H      12.60       4.95      31.34
H      14.28       5.53      31.48
H      13.18       5.65      32.86
H       1.26       0.34      27.55
H      14.34      12.99      33.43
H       2.69       8.19      50.58
H       8.96       7.58      53.69
H       7.88       9.62      54.37
H       4.14       5.63      48.88
H       2.55       4.73      51.22
H       4.07       3.99      50.67
H       2.62       3.93      49.64
H       4.60      10.38      53.94
H       9.03       5.87      51.83
H       8.62      12.47      20.80
H       7.68       6.13      23.66
H       9.71       7.11      24.47
H       6.14      11.15      18.91
H       5.12      12.67      21.25
H       4.39      11.19      20.59
H       4.42      12.68      19.63
H      10.57      10.38      24.22
H       6.02       6.16      21.78
H      12.53       8.44       9.33
H       6.53       7.87       5.72
H       7.59       9.98       5.25
H      10.98       5.83      10.83
H      12.77       4.98       8.61
H      11.21       4.22       9.03
H      12.57       4.15      10.16
H      10.79      10.83       5.99
H       6.39       6.11       7.61
H       6.41      12.39      39.08
H       7.29       6.32      35.67
H       5.16       7.28      35.11
H       9.03      10.98      40.69
H       9.89      12.74      38.46
H      10.68      11.22      38.94
H      10.67      12.61      40.04
H       4.18      10.48      35.73
H       9.01       6.31      37.60
N       2.45      12.21      45.98
N       2.68      13.71      43.74
N       4.68      12.51      43.09
N       0.33      12.53      47.78
N       0.83       0.77      43.18
N      12.41      12.64      16.12
N      13.94      12.40      13.90
N      12.73      10.41      13.24
N      12.72      14.77      17.92
N       1.02      14.22      13.36
N      12.54      14.78      58.95
N      12.14      14.93       1.52
N       9.73      14.76       1.35
N      15.05      -0.01      57.70
N      14.46       0.23       3.21
N      14.77       1.80      29.40
N      14.40       1.42      32.05
N      13.87       3.69      32.48
N       0.54      14.66      27.69
N      14.77      13.91      33.25
N       4.28       8.77      51.76
N       5.47       6.45      51.03
N       3.55       5.83      49.70
N       5.57      10.57      53.64
N       8.03       5.71      52.02
N       9.10      10.82      21.95
N       6.79       9.72      21.05
N       6.29      11.71      19.76
N      10.76       9.43      23.88
N       5.91       7.17      21.94
N      11.02       9.05       8.06
N       9.83       6.68       8.58
N      11.64       6.04      10.07
N       9.80      10.95       6.23
N       7.38       5.95       7.38
N       5.89      10.83      37.84
N       8.29       9.74      38.46
N       8.82      11.61      39.91
N       4.09       9.49      35.99
N       9.15       7.29      37.33
Si      10.91      14.55      52.60
Si      14.84       4.16      22.72
Si       4.45      14.95       7.52
Si      15.09       4.16      37.33
