22

Eu       3.90       8.06       1.05
Eu       7.50       8.19      -1.02
C       5.90       5.87       1.13
C       2.11      10.42       1.15
C       3.99       8.07       3.93
C       4.05       8.12       5.40
C       5.52      10.39      -1.10
C       2.04       5.84      -1.14
C       7.39       8.20      -3.90
C       3.13       7.52       6.17
O       6.34       7.03       0.73
O       4.67       5.71       1.41
O       1.67       9.33       0.58
O       3.27      10.45       1.65
O       2.99       7.56       3.31
O       4.97       8.54       3.25
O       5.10       9.24      -0.66
O       6.74      10.55      -1.41
O       2.49       6.93      -0.58
O       8.13       5.80      -1.64
O       8.41       8.68      -3.28
O       6.40       7.77      -3.21
