103

Cd      14.83       9.53      16.43
Cd       4.75       3.13       0.52
Cd      10.07       5.81       8.45
H      13.64       3.86      10.88
H      12.34       7.47      12.84
H      15.58       5.21      14.54
H       4.85       4.22      13.41
H       5.01       7.74      14.48
H       6.25       8.02      10.32
H       7.66       4.81      12.80
H      14.71      11.15      13.31
H      15.85      11.45      11.98
H      14.61      10.18      11.83
H      15.69       8.86      13.62
H       5.63       1.92      14.01
H       4.68       1.20      12.62
H       6.13       2.28      12.37
H      10.20       1.54       6.20
H       7.70       4.40       4.17
H       8.12       0.45       2.54
H      13.82       9.82       3.57
H      10.78      11.27       2.48
H       9.87      10.24       6.60
H      12.06       7.51       4.10
H       3.48       3.90       3.66
H       2.69       3.04       5.00
H       4.40       3.54       5.14
H       5.06       1.96       3.36
H      15.57       8.07       3.11
H      16.51       8.61       4.57
H      14.89       7.80       4.70
C      14.20       7.49      14.82
C      11.86       5.91      10.67
C      17.10      10.35      14.29
C      13.73       4.57      11.70
C      13.01       6.61      12.80
C       2.88       3.01      16.76
C       6.34       5.52      15.08
C      14.84       5.33      13.75
C      13.99       6.44      13.78
C       5.50       8.01      12.36
C       6.31       6.22      13.76
C      14.68       4.44      12.70
C       4.43       3.28      13.03
C       7.04       6.37      11.45
C       5.55       7.38      13.61
C       6.25       7.51      11.28
C       7.95       5.91      10.35
C       7.05       5.70      12.68
C      15.30      10.68      12.52
C      12.88       5.69      11.75
C      16.24       9.67      13.14
C       5.23       2.07      12.98
C       6.84       2.76       2.15
C       9.25       4.12       6.34
C       3.09       1.39       2.69
C       9.54       1.80       5.37
C       8.12       3.40       4.22
C       9.91       0.05       0.33
C      12.06       9.02       1.85
C       8.36       1.16       3.32
C       7.82       2.45       3.24
C      10.29      10.93       4.59
C      11.47       9.37       3.17
C       9.20       0.88       4.38
C      14.81       9.77       4.03
C      10.97       8.78       5.46
C      10.83      10.61       3.33
C      10.34      10.01       5.65
C      10.97       7.73       6.53
C      11.56       8.47       4.23
C       3.63       3.17       4.45
C       8.97       3.08       5.29
C       4.08       1.85       3.83
C      15.52       8.51       4.13
O      13.52       8.57      14.74
O      16.43      10.61      15.35
O      12.51       1.85       0.61
O      11.06       6.87      10.77
O       6.15       6.20      16.14
O      15.13       7.32      15.69
O       8.13       6.70       9.36
O       8.57       4.81      10.45
O       3.23       3.27      12.59
O      17.04       9.12      12.09
O      11.88       5.10       9.67
O      18.29      10.60      14.07
O       6.53       4.25      15.09
O       3.68       2.94      15.89
O       6.26       3.90       2.16
O       3.11       2.14       1.63
O      11.70       2.11      16.46
O       8.76       5.27       6.21
O      11.60       9.56       0.79
O       6.57       1.84       1.30
O      10.20       7.92       7.54
O      11.67       6.69       6.40
O      15.33      10.84       4.51
O       4.19       0.88       4.88
O       9.98       3.78       7.34
O       2.37       0.41       2.89
O      13.04       8.18       1.82
O      15.45      10.50       1.21
