110

C       9.11      22.80       3.74
C       9.14      21.81       2.77
C       9.16      22.43       1.52
C       9.13      24.04       3.11
C       9.11      25.30       3.78
C       9.11       0.97       3.13
C       9.12       2.55       1.53
C       9.10       3.19       2.77
C       9.11       2.22       3.75
C       9.12       3.19       0.26
C       9.14       2.52      24.60
C       9.18       0.91      23.01
C       9.19       2.15      22.38
C       9.18       3.14      23.35
C       9.19      25.24      22.34
C       9.19      23.98      22.99
C       9.20      22.40      24.59
C       9.20      21.76      23.35
C       9.21      22.73      22.37
C       9.19      21.75       0.27
C       9.22      20.31       0.28
C       9.26      17.45       0.30
C       8.06      18.16       0.55
C       8.04      19.57       0.54
C       9.22      25.25      20.90
C       9.27      25.25      18.04
C       8.07      24.98      18.75
C       8.05      24.99      20.16
C       9.12       4.63       0.24
C       7.95       5.36      25.48
C       7.95       6.77      25.45
C       9.11       7.49       0.19
C       9.10      25.30       5.22
C       7.93       0.04       5.94
C       9.11      25.34       8.08
C       7.94       0.07       7.35
C       7.86      25.36      13.40
C       8.84      25.27      14.42
C       2.16      24.96      12.49
C       8.50      25.30      15.76
C       7.86      12.81       0.18
C       8.83      13.83       0.28
C       2.15      11.90       0.61
C       8.49      15.17       0.25
C       0.64      19.61       0.05
C       0.66      18.20       0.06
C       0.64      25.50      20.20
C       0.66      25.50      18.79
C       0.50       6.77       0.54
C       0.50       5.36       0.56
C       0.50      24.99       5.95
C       0.50      25.00       7.35
C       9.54      25.13      11.70
C       0.76      25.07      12.71
C       0.01      24.92      10.34
C       9.53      11.10       0.41
C       0.75      12.12       0.49
C       0.00       9.75       0.62
H       7.08       0.33       7.84
H       7.07       0.28       5.44
H       9.08      22.61       4.74
H       9.15      20.81       2.97
H       9.18      24.44       1.10
H       9.12       0.51      25.02
H       9.12       2.41       4.76
H       9.09       4.19       2.95
H       7.09       4.86      25.23
H       7.09       7.26      25.18
H       9.20       4.14      23.15
H       9.22       2.34      21.37
H       9.21      20.76      23.17
H       9.23      22.54      21.36
H       1.51       0.09      20.71
H       1.55       0.09      18.31
H       7.16      24.79      20.64
H       7.21      24.77      18.25
H       7.15      20.06       0.72
H       7.19      17.67       0.76
H       1.54      17.73      25.47
H       1.51      20.13      25.46
H       6.87      25.45      13.61
H       2.37       0.67      10.95
H       3.79      25.58      11.48
H       7.53      25.38      16.00
H       6.86      13.02       0.08
H       2.37      10.36      24.90
H       3.79      10.89       0.01
H       7.53      15.41       0.16
H       1.37      24.79       7.84
H       1.36      24.76       5.45
H       1.37       4.87       0.81
H       1.37       7.26       0.76
H       0.79      24.36      10.09
H       0.77       9.50       1.20
N       9.15      23.77       1.78
N       9.12       1.22       1.80
N       9.14       1.18      24.34
N       9.18      23.73      24.32
N       9.37      25.24      16.71
N       9.04       8.82       0.12
N       9.04      25.41       9.42
N       9.36      16.12       0.31
N       8.25      25.27      12.10
N       2.82       0.03      11.52
N       8.24      11.51       0.27
N       2.82      10.94      25.55
N       0.35      25.13      14.01
N       0.34      13.42       0.43
O       2.90      24.28      13.40
O       2.88      12.81       1.30
