1116

H      45.92      22.51      24.10
H      48.17      22.99      23.53
H      46.54      24.15      27.94
H      48.79      24.65      27.36
H      51.42      24.01      27.33
H      52.57      22.08      28.12
H      51.78      20.15      24.47
H      50.65      22.07      23.68
H      52.17      24.25      23.04
H      52.28      24.99      20.77
H      48.34      26.45      21.07
H      48.24      25.74      23.31
H      48.53      26.69      25.56
H      52.59      25.58      25.34
H      53.21      27.82      25.82
H      49.14      28.91      26.03
H      52.53      18.87      26.42
H      44.45      22.72      27.28
H      49.49      25.98      18.82
H      52.51      30.11      26.59
H      45.92      43.20      26.98
H      48.17      42.47      26.85
H      46.54      45.70      23.64
H      48.79      44.94      23.49
H      51.42      45.24      24.06
H      52.56      46.89      25.34
H      51.78      44.70      28.84
H      50.65      43.06      27.57
H      52.17      41.41      26.00
H      52.28      39.07      26.50
H      48.34      38.60      25.08
H      48.24      40.90      24.58
H      48.53      42.37      22.63
H      52.59      42.74      23.70
H      53.21      42.03      21.52
H      49.15      41.67      20.47
H      52.53      47.02      28.97
H      44.45      45.85      25.21
H      49.49      36.89      26.61
H      52.51      41.54      19.15
H      45.92      35.34       7.62
H      48.17      35.60       8.32
H      46.54      31.20       7.12
H      48.79      31.45       7.85
H      51.42      31.80       7.31
H      52.56      32.08       5.24
H      51.78      36.21       5.39
H      50.65      35.93       7.45
H      52.17      35.39       9.66
H      52.28      36.99      11.44
H      48.34      36.00      12.55
H      48.24      34.42      10.81
H      48.53      32.00      10.51
H      52.59      32.73       9.66
H      53.21      31.20      11.36
H      49.14      30.48      12.20
H      52.53      35.16       3.31
H      44.45      32.49       6.21
H      49.49      38.18      13.27
H      52.51      29.40      12.96
H      17.55      12.31      33.82
H      19.81      11.83      34.39
H      18.19      10.70      29.98
H      20.43      10.19      30.56
H      23.07      10.81      30.60
H      24.21      12.75      29.80
H      23.41      14.69      33.45
H      22.27      12.77      34.23
H      23.81      10.59      34.89
H      23.92       9.86      37.16
H      19.99       8.37      36.85
H      19.89       9.08      34.61
H      20.16       8.15      32.35
H      24.22       9.25      32.59
H      24.85       7.01      32.12
H      20.78       5.92      31.88
H      24.17      15.96      31.50
H      16.09      12.11      30.64
H      21.14       8.86      39.10
H      24.15       4.72      31.34
H      17.55      -8.36      30.95
H      19.81      -7.63      31.08
H      18.18     -10.88      34.27
H      20.43     -10.12      34.42
H      23.07     -10.41      33.86
H      24.21     -12.06      32.58
H      23.41      -9.87      29.08
H      22.28      -8.23      30.35
H      23.81      -6.58      31.91
H      23.92      -4.24      31.41
H      19.98      -3.77      32.85
H      19.89      -6.06      33.35
H      20.16      -7.55      35.29
H      24.22      -7.90      34.22
H      24.85      -7.19      36.40
H      20.78      -6.85      37.45
H      24.17     -12.20      28.95
H      16.09     -11.02      32.71
H      21.13      -2.06      31.31
H      24.15      -6.72      38.77
H      17.56      -0.51      50.30
H      19.81      -0.76      49.60
H      18.18       3.63      50.80
H      20.43       3.38      50.07
H      23.06       3.03      50.61
H      24.20       2.75      52.68
H      23.42      -1.38      52.53
H      22.29      -1.10      50.47
H      23.81      -0.56      48.26
H      23.92      -2.16      46.48
H      19.97      -1.17      45.37
H      19.88       0.41      47.11
H      20.16       2.84      47.41
H      24.23       2.10      48.26
H      24.85       3.63      46.56
H      20.78       4.36      45.72
H      24.17      -0.33      54.61
H      16.09       2.35      51.71
H      21.13      -3.35      44.65
H      24.15       5.44      44.96
H       7.56     -10.10      33.80
H       5.26      -9.79      34.27
H       7.10      -7.93      30.21
H       4.80      -7.63      30.69
H       2.26      -8.62      30.58
H       1.11     -10.55      29.78
H       1.54     -12.36      33.55
H       2.69     -10.45      34.35
H       1.29      -8.12      34.86
H       1.17      -7.36      37.13
H       5.27      -6.37      36.98
H       5.37      -7.09      34.75
H       4.94      -5.82      32.70
H       0.92      -7.04      32.43
H       0.28      -4.80      31.96
H       4.31      -3.60      32.23
H       0.95     -13.69      31.56
H       9.32      -8.44      31.01
H       4.01      -6.55      39.16
H       0.96      -2.47      31.39
H       7.55      10.72      30.88
H       5.25      10.16      30.92
H       7.10      12.73      34.57
H       4.81      12.16      34.59
H       2.27      12.76      33.78
H       1.12      14.42      32.51
H       1.54      12.05      29.06
H       2.68      10.41      30.32
H       1.29       8.80      32.08
H       1.17       6.46      31.61
H       5.27       6.09      32.52
H       5.37       8.38      33.02
H       4.94       9.52      35.14
H       0.92      10.38      34.23
H       0.28       9.67      36.40
H       4.31       8.82      37.30
H       0.95      14.45      28.91
H       9.32      12.30      33.72
H       4.01       4.29      31.28
H       0.96       8.98      38.71
H       7.56       2.83      50.37
H       5.25       3.08      49.87
H       7.10      -1.36      50.28
H       4.80      -1.10      49.78
H       2.26      -0.70      50.70
H       1.11      -0.43      52.77
H       1.54       3.74      52.45
H       2.69       3.48      50.39
H       1.29       2.76      48.12
H       1.17       4.34      46.33
H       5.27       3.72      45.55
H       5.37       2.15      47.28
H       4.94      -0.26      47.21
H       0.92       0.11      48.41
H       0.28      -1.42      46.71
H       4.31      -1.78      45.53
H       0.95       2.68      54.59
H       9.32      -0.42      50.33
H       4.01       5.70      44.62
H       0.96      -3.08      44.96
H      35.92      44.94      24.12
H      33.62      44.62      23.65
H      35.46      42.77      27.71
H      33.17      42.46      27.23
H      30.62      43.45      27.33
H      29.47      45.38      28.14
H      29.91      47.19      24.37
H      31.05      45.28      23.57
H      29.65      42.95      23.06
H      29.53      42.19      20.79
H      33.63      41.20      20.94
H      33.73      41.92      23.17
H      33.30      40.65      25.22
H      29.28      41.87      25.49
H      28.64      39.64      25.96
H      32.67      38.43      25.69
H      29.32      48.52      26.36
H      37.68      43.28      26.91
H      32.37      41.38      18.76
H      29.32      37.30      26.52
H      35.92      24.12      27.03
H      33.62      24.68      27.00
H      35.46      22.09      23.36
H      33.17      22.66      23.33
H      30.62      22.07      24.14
H      29.47      20.41      25.41
H      29.91      22.78      28.86
H      31.05      24.42      27.61
H      29.65      26.03      25.85
H      29.53      28.37      26.32
H      33.63      28.74      25.39
H      33.73      26.45      24.89
H      33.30      25.31      22.77
H      29.28      24.46      23.69
H      28.64      25.17      21.52
H      32.67      26.01      20.62
H      29.31      20.39      29.02
H      37.68      22.53      24.20
H      32.37      30.54      26.64
H      29.32      25.86      19.22
H      35.92      32.00       7.56
H      33.62      31.75       8.07
H      35.46      36.19       7.62
H      33.16      35.93       8.13
H      30.61      35.53       7.23
H      29.46      35.26       5.16
H      29.92      31.09       5.47
H      31.06      31.36       7.52
H      29.65      32.07       9.79
H      29.53      30.48      11.57
H      33.62      31.12      12.39
H      33.72      32.70      10.65
H      33.30      35.11      10.70
H      29.28      34.71       9.52
H      28.64      36.24      11.22
H      32.68      36.62      12.39
H      29.32      32.16       3.32
H      37.68      35.25       7.59
H      32.37      29.13      13.30
H      29.32      37.90      12.96
H      52.80      26.72      16.90
H      52.72      27.86      14.79
H      47.29      31.97      15.62
H      47.19      32.40      17.33
H      46.13      31.14      16.66
H      46.51      30.83      19.16
H      47.83      30.37      20.23
H      46.74      29.14      19.57
H      52.80      34.86      26.93
H      52.72      32.46      27.00
H      47.29      31.12      23.03
H      47.20      32.38      21.80
H      46.13      32.44      23.22
H      46.51      34.75      22.24
H      47.83      35.91      22.10
H      46.75      35.96      23.50
H      52.80      39.47      14.87
H      52.72      40.73      16.91
H      47.29      37.96      20.06
H      47.19      36.26      19.58
H      46.13      37.47      18.82
H      46.50      35.47      17.30
H      47.83      34.77      16.37
H      46.74      35.95      15.62
H      24.44       8.11      41.02
H      24.36       6.98      43.13
H      18.93       2.86      42.30
H      18.83       2.43      40.59
H      17.77       3.69      41.25
H      18.14       4.00      38.76
H      19.47       4.46      37.69
H      18.38       5.70      38.34
H      24.44      -0.02      30.99
H      24.36       2.37      30.91
H      18.93       3.71      34.89
H      18.83       2.45      36.12
H      17.77       2.39      34.70
H      18.14       0.08      35.68
H      19.47      -1.08      35.82
H      18.38      -1.14      34.42
H      24.44      -4.65      43.05
H      24.36      -5.91      41.01
H      18.93      -3.13      37.86
H      18.83      -1.43      38.34
H      17.77      -2.64      39.10
H      18.14      -0.63      40.61
H      19.47       0.06      41.55
H      18.38      -1.12      42.29
H       0.68      -5.77      41.02
H       0.73      -4.61      43.12
H       6.19      -0.54      42.31
H       6.31      -0.13      40.60
H       7.37      -1.38      41.29
H       7.02      -1.73      38.80
H       5.71      -2.19      37.71
H       6.78      -3.43      38.40
H       0.68       2.29      31.02
H       0.73      -0.10      30.99
H       6.19      -1.44      34.91
H       6.32      -0.16      36.13
H       7.37      -0.13      34.69
H       7.02       2.20      35.64
H       5.71       3.37      35.78
H       6.78       3.40      34.37
H       0.67       6.92      43.01
H       0.73       8.15      40.95
H       6.19       5.42      37.84
H       6.32       3.73      38.34
H       7.37       4.95      39.08
H       7.02       2.97      40.62
H       5.71       2.26      41.57
H       6.78       3.48      42.29
H      29.04      40.60      16.90
H      29.09      39.44      14.80
H      34.56      35.37      15.61
H      34.68      34.96      17.33
H      35.73      36.22      16.63
H      35.39      36.56      19.12
H      34.07      37.02      20.21
H      35.14      38.26      19.52
H      29.04      32.54      26.89
H      29.09      34.93      26.93
H      34.56      36.27      23.01
H      34.68      34.99      21.79
H      35.73      34.96      23.23
H      35.39      32.63      22.28
H      34.08      31.46      22.14
H      35.14      31.44      23.55
H      29.03      27.91      14.91
H      29.09      26.69      16.97
H      34.56      29.42      20.08
H      34.68      31.11      19.58
H      35.73      29.88      18.84
H      35.39      31.86      17.30
H      34.07      32.57      16.35
H      35.14      31.36      15.62
H      42.21      21.72      27.00
H      39.82      21.69      27.11
H      38.14      27.00      23.14
H      39.36      27.17      21.87
H      39.40      28.22      23.30
H      41.71      28.00      22.29
H      42.93      26.74      22.09
H      42.96      27.79      23.52
H      42.21      46.10      26.21
H      39.82      46.21      26.18
H      38.14      40.12      23.57
H      39.36      38.93      24.05
H      39.41      39.65      22.43
H      41.71      38.89      23.13
H      42.93      39.34      24.32
H      42.96      40.05      22.70
H      42.21      33.23       5.49
H      39.82      33.15       5.41
H      38.14      33.93      11.99
H      39.36      34.95      12.78
H      39.41      33.18      12.97
H      41.71      34.17      13.28
H      42.93      34.97      12.30
H      42.96      33.21      12.49
H      13.85      13.11      30.92
H      11.46      13.14      30.81
H       9.78       7.83      34.78
H      11.00       7.66      36.05
H      11.04       6.61      34.61
H      13.34       6.83      35.63
H      14.57       8.09      35.83
H      14.60       7.04      34.41
H      13.85     -11.27      31.71
H      11.45     -11.38      31.74
H       9.78      -5.29      34.35
H      11.00      -4.10      33.87
H      11.04      -4.82      35.49
H      13.34      -4.06      34.79
H      14.57      -4.51      33.60
H      14.60      -5.22      35.22
H      13.85       1.60      52.43
H      11.45       1.68      52.51
H       9.78       0.90      45.93
H      11.00      -0.12      45.14
H      11.05       1.65      44.95
H      13.35       0.66      44.64
H      14.57      -0.14      45.63
H      14.60       1.62      45.43
H      55.69      17.51      31.23
H      54.55      19.33      30.19
H      53.92      17.13      23.75
H      53.72      15.37      23.78
H      55.30      16.09      23.38
H      55.59      13.76      24.33
H      55.36      12.95      25.88
H       0.21      13.66      25.47
H      55.69     -13.20      27.75
H      54.55     -15.01      26.69
H      53.92      45.59      31.82
H      53.72     -18.58      33.32
H      55.30      45.78      32.90
H      55.59     -17.30      34.44
H      55.36     -15.55      34.37
H       0.21     -16.27      33.95
H      55.69      -0.86      56.08
H      54.55      31.66       1.82
H      53.92      38.34       3.13
H      53.72      39.19       1.60
H      55.30      39.19       2.42
H      55.59       6.98      56.29
H      55.36       6.05      54.81
H       0.21       6.04      55.63
H      27.33      17.32      26.69
H      26.19      15.50      27.73
H      25.56      17.70      34.17
H      25.36      19.46      34.14
H      26.94      18.74      34.54
H      27.23      21.07      33.59
H      27.00      21.88      32.04
H      28.57      21.17      32.45
H      27.33     -17.04      30.17
H      26.19     -15.23      31.24
H      25.56     -10.76      26.10
H      25.36     -11.66      24.60
H      26.94     -10.95      25.02
H      27.23     -12.94      23.48
H      27.00      50.39      23.55
H      28.57      51.10      23.97
H      27.33      35.70       1.84
H      26.19       3.17      56.10
H      25.56      -3.51      54.79
H      25.36      -4.36      56.32
H      26.94      -4.35      55.50
H      27.23      27.85       1.63
H      27.00      28.79       3.11
H      28.57      28.79       2.29
C      51.24      28.60      25.99
C      52.22      27.58      25.82
C      51.84      26.25      25.55
C      50.48      25.84      25.49
C      49.52      26.88      25.68
C      49.89      28.21      25.93
C      50.09      24.47      24.91
C      50.16      24.82      23.41
C      49.09      25.53      22.79
C      49.15      25.96      21.46
C      50.31      25.77      20.69
C      51.41      25.13      21.29
C      51.34      24.67      22.63
C      50.98      23.30      25.38
C      48.70      23.99      25.34
C      47.85      23.26      24.46
C      46.51      22.97      24.80
C      45.99      23.33      26.06
C      46.87      23.90      27.00
C      48.20      24.20      26.65
C      51.54      23.23      26.68
C      52.21      22.08      27.16
C      52.33      20.92      26.37
C      51.76      20.97      25.07
C      51.09      22.12      24.60
C      44.66      23.10      26.39
C      51.63      29.92      26.17
C      50.30      26.20      19.37
C      52.88      19.70      26.83
C      51.24      41.79      20.76
C      52.22      42.15      21.73
C      51.84      42.58      23.01
C      50.48      42.73      23.40
C      49.52      42.38      22.41
C      49.89      41.93      21.13
C      50.09      42.92      24.87
C      50.16      41.45      25.32
C      49.09      40.56      25.02
C      49.15      39.18      25.31
C      50.31      38.61      25.86
C      51.41      39.46      26.11
C      51.34      40.84      25.84
C      50.98      43.90      25.65
C      48.70      43.53      25.08
C      47.85      43.14      26.15
C      46.51      43.57      26.23
C      45.99      44.49      25.29
C      46.87      45.01      24.32
C      48.20      44.56      24.23
C      51.54      45.08      25.06
C      52.21      46.06      25.82
C      52.33      45.96      27.23
C      51.75      44.81      27.83
C      51.09      43.83      27.07
C      44.66      44.89      25.33
C      51.63      41.29      19.52
C      50.30      37.26      26.15
C      52.88      46.96      28.04
C      51.24      30.67      11.95
C      52.22      31.32      11.16
C      51.84      32.22      10.14
C      50.48      32.48       9.82
C      49.52      31.80      10.62
C      49.89      30.91      11.65
C      50.09      33.66       8.92
C      50.16      34.79       9.96
C      49.09      34.97      10.89
C      49.15      35.91      11.93
C      50.31      36.67      12.15
C      51.41      36.47      11.29
C      51.34      35.54      10.23
C      50.98      33.85       7.67
C      48.70      33.53       8.28
C      47.85      34.66       8.09
C      46.51      34.51       7.67
C      45.99      33.24       7.35
C      46.87      32.14       7.38
C      48.20      32.29       7.81
C      51.54      32.75       6.95
C      52.21      32.91       5.72
C      52.33      34.18       5.11
C      51.76      35.28       5.80
C      51.09      35.11       7.03
C      44.66      33.07       6.98
C      51.63      29.85      13.01
C      50.30      37.60      13.18
C      52.88      34.39       3.83
C      22.88       6.24      31.93
C      23.86       7.25      32.11
C      23.48       8.58      32.38
C      22.12       8.99      32.43
C      21.16       7.96      32.24
C      21.52       6.62      31.98
C      21.73      10.36      33.01
C      21.80      10.01      34.51
C      20.74       9.30      35.13
C      20.80       8.86      36.46
C      21.95       9.06      37.24
C      23.05       9.71      36.63
C      22.98      10.16      35.29
C      22.62      11.53      32.54
C      20.34      10.84      32.58
C      19.48      11.56      33.46
C      18.15      11.85      33.13
C      17.63      11.50      31.86
C      18.51      10.94      30.92
C      19.85      10.64      31.27
C      23.18      11.60      31.24
C      23.86      12.75      30.76
C      23.97      13.92      31.55
C      23.39      13.87      32.84
C      22.72      12.71      33.31
C      16.30      11.74      31.53
C      23.27       4.91      31.75
C      21.94       8.64      38.56
C      24.52      15.13      31.09
C      22.88      -6.96      37.16
C      23.86      -7.31      36.19
C      23.48      -7.75      34.91
C      22.12      -7.90      34.52
C      21.16      -7.55      35.51
C      21.52      -7.11      36.80
C      21.73      -8.09      33.05
C      21.80      -6.62      32.60
C      20.74      -5.72      32.91
C      20.79      -4.35      32.62
C      21.95      -3.78      32.06
C      23.05      -4.63      31.80
C      22.98      -6.01      32.08
C      22.62      -9.07      32.27
C      20.34      -8.70      32.84
C      19.48      -8.30      31.78
C      18.15      -8.73      31.69
C      17.63      -9.65      32.63
C      18.51     -10.18      33.59
C      19.84      -9.73      33.68
C      23.18     -10.24      32.86
C      23.86     -11.23      32.10
C      23.97     -11.13      30.69
C      23.39      -9.98      30.09
C      22.72      -9.00      30.85
C      16.30     -10.06      32.59
C      23.27      -6.46      38.40
C      21.94      -2.42      31.77
C      24.52     -12.13      29.88
C      22.88       4.16      45.97
C      23.85       3.51      46.76
C      23.48       2.61      47.78
C      22.12       2.35      48.10
C      21.16       3.03      47.30
C      21.52       3.92      46.27
C      21.73       1.17      49.00
C      21.80       0.04      47.96
C      20.73      -0.14      47.03
C      20.79      -1.07      45.99
C      21.95      -1.84      45.77
C      23.05      -1.63      46.62
C      22.98      -0.70      47.69
C      22.62       0.99      50.25
C      20.34       1.30      49.64
C      19.49       0.18      49.83
C      18.15       0.32      50.25
C      17.63       1.59      50.57
C      18.51       2.69      50.54
C      19.84       2.54      50.11
C      23.18       2.08      50.97
C      23.85       1.92      52.20
C      23.97       0.65      52.81
C      23.39      -0.44      52.12
C      22.73      -0.28      50.89
C      16.30       1.76      50.94
C      23.27       4.99      44.91
C      21.93      -2.77      44.73
C      24.52       0.45      54.09
C       2.23      -3.97      32.03
C       1.28      -5.01      32.07
C       1.66      -6.35      32.33
C       3.01      -6.72      32.53
C       3.96      -5.65      32.49
C       3.58      -4.32      32.23
C       3.41      -8.10      33.06
C       3.36      -7.80      34.57
C       4.48      -7.22      35.24
C       4.42      -6.77      36.57
C       3.22      -6.82      37.29
C       2.07      -7.33      36.64
C       2.15      -7.80      35.31
C       2.53      -9.27      32.59
C       4.80      -8.57      32.59
C       5.62      -9.41      33.40
C       6.99      -9.60      33.12
C       7.58      -9.01      31.98
C       6.72      -8.35      31.07
C       5.36      -8.16      31.35
C       2.07      -9.38      31.25
C       1.39     -10.52      30.76
C       1.16     -11.64      31.59
C       1.64     -11.56      32.92
C       2.31     -10.41      33.40
C       8.97      -8.98      31.77
C       1.83      -2.65      31.82
C       3.22      -6.34      38.60
C       0.62     -12.86      31.13
C       2.23       9.18      37.09
C       1.28       9.67      36.16
C       1.66      10.11      34.88
C       3.01      10.12      34.45
C       3.95       9.62      35.40
C       3.58       9.18      36.68
C       3.41      10.35      32.99
C       3.37       8.89      32.50
C       4.49       8.03      32.66
C       4.43       6.65      32.38
C       3.22       6.05      31.98
C       2.07       6.87      31.87
C       2.15       8.26      32.13
C       2.53      11.34      32.22
C       4.80      10.99      32.82
C       5.62      10.72      31.69
C       6.99      11.06      31.67
C       7.58      11.75      32.74
C       6.73      12.20      33.77
C       5.36      11.86      33.79
C       2.07      12.56      32.79
C       1.39      13.55      32.05
C       1.16      13.40      30.66
C       1.64      12.20      30.07
C       2.31      11.22      30.82
C       8.97      11.91      32.87
C       1.83       8.70      38.33
C       3.22       4.68      31.74
C       0.62      14.41      29.84
C       2.23      -1.77      45.95
C       1.28      -1.22      46.83
C       1.66      -0.32      47.85
C       3.01       0.03      48.07
C       3.96      -0.53      47.17
C       3.58      -1.42      46.15
C       3.41       1.19      49.01
C       3.36       2.34      47.99
C       4.48       2.64      47.16
C       4.42       3.56      46.10
C       3.21       4.21      45.78
C       2.07       3.90      46.55
C       2.15       2.98      47.62
C       2.53       1.36      50.25
C       4.80       1.02      49.64
C       5.62       2.13      49.97
C       6.99       1.98      50.27
C       7.58       0.70      50.34
C       6.73      -0.41      50.22
C       5.36      -0.26      49.91
C       2.07       0.25      51.02
C       1.39       0.41      52.25
C       1.16       1.69      52.81
C       1.64       2.80      52.07
C       2.31       2.64      50.84
C       8.97       0.51      50.42
C       1.83      -2.61      44.90
C       3.22       5.11      44.72
C       0.62       1.89      54.09
C      30.59      38.80      25.89
C      29.64      39.84      25.85
C      30.02      41.18      25.59
C      31.38      41.55      25.39
C      32.32      40.48      25.43
C      31.94      39.15      25.69
C      31.77      42.93      24.86
C      31.73      42.63      23.35
C      32.84      42.05      22.68
C      32.78      41.60      21.35
C      31.57      41.65      20.63
C      30.43      42.16      21.28
C      30.51      42.63      22.61
C      30.89      44.10      25.33
C      33.16      43.40      25.32
C      33.98      44.24      24.52
C      35.35      44.43      24.80
C      35.95      43.85      25.94
C      35.09      43.18      26.85
C      33.72      43.00      26.56
C      30.43      44.21      26.67
C      29.75      45.35      27.16
C      29.53      46.48      26.33
C      30.01      46.39      25.00
C      30.68      45.25      24.52
C      37.33      43.82      26.15
C      30.19      37.48      26.09
C      31.58      41.18      19.32
C      28.98      47.69      26.79
C      30.59      25.65      20.83
C      29.64      25.16      21.76
C      30.02      24.72      23.04
C      31.38      24.71      23.46
C      32.32      25.21      22.52
C      31.94      25.65      21.24
C      31.77      24.48      24.93
C      31.73      25.94      25.42
C      32.84      26.81      25.26
C      32.78      28.18      25.53
C      31.57      28.78      25.93
C      30.43      27.96      26.05
C      30.51      26.57      25.79
C      30.89      23.49      25.70
C      33.16      23.84      25.10
C      33.98      24.11      26.23
C      35.35      23.78      26.25
C      35.95      23.08      25.18
C      35.09      22.63      24.15
C      33.72      22.97      24.13
C      30.43      22.27      25.13
C      29.75      21.28      25.87
C      29.53      21.43      27.26
C      30.01      22.63      27.86
C      30.68      23.61      27.10
C      37.33      22.92      25.05
C      30.19      26.14      19.59
C      31.58      30.15      26.18
C      28.98      20.43      28.08
C      30.59      36.61      11.97
C      29.64      36.04      11.09
C      30.02      35.15      10.07
C      31.38      34.80       9.84
C      32.32      35.37      10.75
C      31.95      36.26      11.77
C      31.77      33.64       8.91
C      31.72      32.49       9.93
C      32.84      32.20      10.77
C      32.78      31.28      11.82
C      31.57      30.62      12.14
C      30.43      30.92      11.36
C      30.51      31.84      10.29
C      30.89      33.47       7.67
C      33.16      33.81       8.28
C      33.98      32.70       7.95
C      35.35      32.84       7.65
C      35.95      34.13       7.58
C      35.08      35.24       7.69
C      33.72      35.09       8.00
C      30.43      34.58       6.90
C      29.75      34.43       5.67
C      29.52      33.15       5.11
C      30.01      32.04       5.84
C      30.68      32.20       7.07
C      37.33      34.32       7.50
C      30.19      37.44      13.02
C      31.57      29.72      13.20
C      28.98      32.94       3.83
C      51.09      27.66      17.72
C      50.10      28.63      17.46
C      50.05      29.31      16.22
C      51.01      29.04      15.21
C      52.01      28.08      15.49
C      52.06      27.41      16.73
C      48.13      30.55      16.97
C      48.18      29.87      18.21
C      47.13      31.57      16.62
C      47.26      30.07      19.35
C      51.09      35.10      25.71
C      50.10      34.39      25.00
C      50.05      32.97      25.03
C      51.01      32.24      25.77
C      52.01      32.96      26.46
C      52.06      34.37      26.42
C      48.13      33.00      23.58
C      48.18      34.42      23.55
C      47.13      32.19      22.87
C      47.26      35.30      22.80
C      51.09      38.29      15.27
C      50.09      38.04      16.24
C      50.05      38.77      17.45
C      51.01      39.78      17.72
C      52.01      40.02      16.75
C      52.06      39.28      15.55
C      48.13      37.50      18.15
C      48.18      36.77      16.94
C      47.13      37.29      19.21
C      47.26      35.68      16.55
C      22.73       7.17      40.20
C      21.73       6.21      40.46
C      21.69       5.53      41.70
C      22.65       5.79      42.71
C      23.65       6.75      42.43
C      23.70       7.42      41.19
C      19.77       4.29      40.95
C      19.82       4.96      39.71
C      18.77       3.26      41.30
C      18.90       4.76      38.57
C      22.73      -0.27      32.21
C      21.73       0.44      32.92
C      21.69       1.86      32.88
C      22.65       2.60      32.15
C      23.65       1.88      31.46
C      23.70       0.47      31.50
C      19.77       1.83      34.33
C      19.82       0.41      34.37
C      18.77       2.64      35.05
C      18.90      -0.47      35.12
C      22.73      -3.46      42.65
C      21.73      -3.21      41.68
C      21.69      -3.95      40.47
C      22.65      -4.95      40.20
C      23.65      -5.19      41.17
C      23.70      -4.45      42.37
C      19.77      -2.67      39.77
C      19.82      -1.93      40.98
C      18.77      -2.46      38.71
C      18.90      -0.85      41.37
C       2.40      -4.86      40.21
C       3.40      -3.89      40.47
C       3.43      -3.19      41.71
C       2.45      -3.44      42.70
C       1.45      -4.40      42.42
C       1.42      -5.09      41.19
C       5.36      -1.97      40.97
C       5.33      -2.67      39.73
C       6.37      -0.95      41.31
C       6.27      -2.49      38.60
C       2.40       2.54      32.22
C       3.40       1.83      32.93
C       3.43       0.41      32.92
C       2.45      -0.32      32.21
C       1.45       0.40      31.51
C       1.42       1.81      31.53
C       5.36       0.45      34.34
C       5.33       1.86      34.36
C       6.37      -0.37      35.06
C       6.27       2.75      35.08
C       2.40       5.76      42.63
C       3.40       5.50      41.66
C       3.42       6.22      40.44
C       2.45       7.21      40.15
C       1.45       7.45      41.12
C       1.41       6.73      42.34
C       5.36       4.97      39.75
C       5.33       4.25      40.97
C       6.37       4.76      38.69
C       6.27       3.18      41.38
C      30.76      39.69      17.71
C      31.76      38.72      17.45
C      31.79      38.02      16.22
C      30.81      38.27      15.22
C      29.81      39.23      15.50
C      29.78      39.92      16.73
C      33.73      36.81      16.96
C      33.69      37.50      18.19
C      34.73      35.78      16.61
C      34.63      37.32      19.32
C      30.76      32.29      25.69
C      31.76      33.00      24.99
C      31.79      34.42      25.00
C      30.81      35.15      25.71
C      29.81      34.44      26.40
C      29.78      33.02      26.38
C      33.73      34.38      23.58
C      33.69      32.97      23.56
C      34.73      35.20      22.86
C      34.63      32.08      22.84
C      30.76      29.08      15.29
C      31.76      29.33      16.26
C      31.79      28.61      17.48
C      30.81      27.63      17.77
C      29.81      27.39      16.80
C      29.77      28.11      15.59
C      33.73      29.86      18.17
C      33.69      30.59      16.95
C      34.73      30.08      19.23
C      34.63      31.65      16.54
C      42.37      23.40      25.71
C      41.60      24.34      24.99
C      40.18      24.32      25.05
C      39.51      23.34      25.81
C      40.28      22.40      26.54
C      41.69      22.43      26.48
C      40.08      26.25      23.63
C      41.50      26.28      23.56
C      39.20      27.22      22.95
C      42.31      27.26      22.82
C      42.37      44.15      25.40
C      41.60      43.06      24.94
C      40.18      43.12      24.94
C      39.51      44.27      25.41
C      40.28      45.36      25.85
C      41.69      45.30      25.86
C      40.08      40.92      23.98
C      41.50      40.85      23.99
C      39.20      39.85      23.48
C      42.31      39.71      23.50
C      42.37      33.51       7.59
C      41.60      33.66       8.76
C      40.18      33.62       8.71
C      39.51      33.45       7.48
C      40.28      33.29       6.31
C      41.69      33.33       6.36
C      40.08      33.89      11.10
C      41.50      33.93      11.15
C      39.20      33.99      12.28
C      42.31      34.08      12.38
C      14.01      11.43      32.21
C      13.24      10.49      32.93
C      11.82      10.51      32.87
C      11.15      11.49      32.11
C      11.92      12.43      31.38
C      13.33      12.40      31.44
C      11.72       8.58      34.29
C      13.14       8.56      34.36
C      10.83       7.61      34.97
C      13.95       7.57      35.10
C      14.01      -9.32      32.52
C      13.24      -8.22      32.98
C      11.82      -8.29      32.98
C      11.15      -9.44      32.51
C      11.92     -10.53      32.07
C      13.33     -10.47      32.06
C      11.72      -6.09      33.94
C      13.14      -6.02      33.94
C      10.83      -5.01      34.44
C      13.95      -4.88      34.42
C      14.01       1.33      50.33
C      13.24       1.18      49.16
C      11.82       1.21      49.21
C      11.15       1.38      50.44
C      11.92       1.54      51.61
C      13.33       1.50      51.56
C      11.72       0.94      46.82
C      13.14       0.90      46.77
C      10.84       0.84      45.64
C      13.95       0.75      45.54
C      55.83      16.28      29.52
C      55.47      16.24      28.14
C      54.78      17.33      27.52
C      54.41      18.49      28.26
C      54.78      18.52      29.62
C      55.46      17.44      30.24
C      54.80      16.14      25.43
C      55.45      15.05      26.05
C      54.41      16.19      24.00
C      55.85      13.79      25.39
C      55.83     -14.07      29.67
C      55.46     -15.24      30.39
C      54.78     -16.32      29.75
C      54.41     -16.27      28.38
C      54.78     -15.10      27.68
C      55.46     -14.03      28.30
C      54.80     -17.54      31.83
C      55.45     -16.46      32.47
C      54.41      46.28      32.51
C      55.85     -16.40      33.89
C      55.83       1.24      55.88
C      55.46      34.98       0.17
C      54.78      34.97       1.42
C      54.41      33.76       2.06
C      54.78      32.56       1.40
C      55.46      32.57       0.16
C      54.80      37.38       1.44
C      55.45      37.39       0.18
C      54.41      38.59       2.19
C      55.85       6.05      55.78
C      27.47      18.55      28.40
C      27.10      18.59      29.78
C      26.42      17.50      30.40
C      26.05      16.34      29.66
C      26.42      16.32      28.30
C      27.10      17.40      27.68
C      26.44      18.69      32.49
C      27.09      19.78      31.87
C      26.05      18.65      33.92
C      27.49      21.04      32.53
C      27.47     -16.17      28.25
C      27.10     -15.00      27.53
C      26.42     -13.92      28.17
C      26.05     -13.98      29.54
C      26.43     -15.15      30.24
C      27.10     -16.22      29.62
C      26.44     -12.70      26.09
C      27.09     -13.79      25.45
C      26.05     -11.45      25.42
C      27.49     -13.84      24.03
C      27.47      33.60       2.04
C      27.10      32.39       1.39
C      26.42      32.40       0.14
C      26.05       1.08      55.86
C      26.42      34.81       0.16
C      27.10      34.80       1.40
C      26.44      29.99       0.12
C      27.09      29.98       1.38
C      26.05      -3.76      55.73
C      27.49      28.78       2.14
N      49.07      30.23      16.04
N      49.16      28.95      18.39
N      51.16      27.04      18.91
N      50.90      29.71      14.06
N      49.07      32.35      24.32
N      49.16      35.04      24.26
N      51.16      36.44      25.65
N      50.90      30.90      25.77
N      49.07      38.47      18.34
N      49.16      37.07      16.05
N      51.16      37.58      14.14
N      50.90      40.44      18.88
N      20.71       4.60      41.88
N      20.80       5.89      39.53
N      22.80       7.79      39.01
N      22.54       5.12      43.86
N      20.71       2.48      33.59
N      20.80      -0.21      33.66
N      22.80      -1.60      32.27
N      22.54       3.93      32.15
N      20.71      -3.64      39.58
N      20.80      -2.24      41.87
N      22.79      -2.75      43.78
N      22.54      -5.61      39.04
N       4.41      -2.27      41.89
N       4.35      -3.59      39.55
N       2.35      -5.50      39.04
N       2.55      -2.76      43.84
N       4.41      -0.20      33.62
N       4.35       2.48      33.65
N       2.35       3.88      32.26
N       2.55      -1.65      32.23
N       4.41       5.92      39.55
N       4.35       4.55      41.86
N       2.35       5.06      43.77
N       2.55       7.85      38.99
N      32.77      37.10      16.03
N      32.71      38.42      18.37
N      30.71      40.33      18.89
N      30.91      37.59      14.08
N      32.77      35.03      24.29
N      32.71      32.35      24.27
N      30.71      30.95      25.66
N      30.91      36.49      25.69
N      32.77      28.92      18.37
N      32.71      30.28      16.06
N      30.71      29.77      14.15
N      30.91      26.98      18.93
N      39.50      25.27      24.37
N      42.18      25.32      24.25
N      43.71      23.46      25.61
N      38.18      23.34      25.92
N      39.50      42.05      24.45
N      42.18      41.92      24.47
N      43.71      44.03      25.40
N      38.18      44.35      25.35
N      39.50      33.73       9.88
N      42.18      33.81       9.98
N      43.71      33.56       7.69
N      38.18      33.36       7.44
N      11.14       9.56      33.55
N      13.82       9.51      33.67
N      15.34      11.37      32.31
N       9.82      11.49      32.00
N      11.14      -7.22      33.47
N      13.82      -7.09      33.45
N      15.34      -9.20      32.52
N       9.82      -9.52      32.57
N      11.14       1.10      48.04
N      13.82       1.02      47.94
N      15.34       1.27      50.23
N       9.82       1.48      50.48
N      54.50      17.22      26.20
N      55.75      15.16      27.37
N      56.46      15.28      30.19
N      53.79      19.58      27.74
N      54.50     -17.41      30.51
N      55.75     -15.37      31.71
N      56.46     -12.99      30.19
N      53.79      47.82      27.70
N      54.50      36.17       1.99
N      55.74       3.65      55.98
N      56.46       1.15      54.67
N      53.79      33.66       3.26
N      26.14      17.61      31.72
N      27.38      19.67      30.55
N      28.10      19.55      27.73
N      25.43      15.26      30.18
N      26.14     -12.83      27.41
N      27.38     -14.87      26.21
N      28.10      47.82      27.73
N      25.43     -12.99      30.22
N      26.14      -1.34      55.93
N      27.38      31.18       1.94
N      28.10      33.69       3.25
N      25.43       1.17      54.66
