16

H       5.05       0.62       1.09
O       8.33       1.73       3.02
C       5.98       0.34       0.60
O       8.34      -1.73      -3.02
C       7.20      -1.45      -2.53
C       7.20      -0.69      -1.22
O       6.06      -1.73      -3.02
H       9.34       0.62       1.10
O       6.05       1.73       3.02
C       8.41       0.34       0.61
H       9.34      -0.62      -1.09
C       8.41      -0.34      -0.60
H       5.05      -0.62      -1.10
C       7.19       1.45       2.53
C       7.19       0.69       1.22
C       5.99      -0.34      -0.61
