16

C      10.46       7.46       9.87
C      10.18       5.90       8.04
O       9.85       4.39       6.26
C       9.52       5.52       6.75
O       8.70       6.36       6.26
H      12.38       4.70      10.36
C      11.68       5.37       9.87
O      11.70       8.10      12.26
H      11.31       4.08       8.17
C      12.03       6.97      11.77
C      11.37       6.59      10.48
C      11.09       5.02       8.66
H       9.17       7.79       8.17
C       9.87       7.12       8.66
O      12.85       6.12      12.26
H      10.24       8.41      10.36
