412

Cu       6.61      17.48      14.06
Cu       4.24      17.10      13.71
Cu      15.26       7.01      36.45
Cu      15.15       4.61      36.10
Cu       0.19      10.29       8.32
Cu       0.30      12.69       8.68
Cu       8.84      -0.18      30.71
Cu      11.21       0.20      31.06
H       8.87       0.11      17.17
H       8.32       1.62      19.09
H       4.13       0.76      18.56
H       4.70      -0.76      16.66
H       7.29       5.86      24.11
H       7.61       4.17      22.35
H       3.34       3.81      21.92
H       3.02       5.50      23.69
H       3.64      13.63      16.23
H       3.54      12.08      18.18
H       7.09      13.91      19.81
H       7.21      15.42      17.82
H       2.85       8.11      23.67
H       2.94       9.89      21.97
H       7.19      10.28      22.61
H       7.10       8.48      24.28
H      12.18       8.44      33.77
H      10.53       8.76      31.93
H      10.84       4.57      30.93
H      12.50       4.27      32.76
H      -2.11       4.00      33.26
H      -0.62       4.16      31.27
H      -1.51       8.37      30.96
H      -2.97       8.20      32.98
H       3.74       4.67      26.01
H       1.94       4.46      27.69
H       1.52       8.75      27.75
H       3.32       8.95      26.07
H       6.28       4.84      26.21
H       7.92       4.86      28.05
H       7.61       9.15      28.27
H       5.97       9.12      26.43
H      -2.26       7.30      39.56
H      -0.69       6.93      41.47
H      -1.08       2.67      40.94
H      -2.65       3.05      39.04
H       6.36       9.43       1.73
H       1.92       6.51      44.74
H       2.04       2.22      44.31
H       6.49       5.15       1.30
H      11.77       3.62      38.61
H      10.24       3.35      40.57
H      11.66       7.08      42.19
H      13.14       7.37      40.20
H       9.10       5.27       1.29
H       8.13       2.51      44.35
H      10.78       9.82       0.23
H       8.99       9.53       1.89
H       8.38      14.58      11.39
H       8.89      12.98       9.54
H       4.69      12.82       8.55
H       4.20      14.43      10.37
H       5.58      -0.12      10.87
H       5.57       1.38       8.88
H       9.85       0.97       8.57
H       9.84      -0.50      10.59
H       5.58       5.77       3.63
H       5.58       3.96       5.30
H       9.89       4.02       5.36
H       9.88       5.83       3.69
H       5.46       8.32       3.82
H       5.30       9.94       5.66
H       9.60      10.12       5.88
H       9.76       8.49       4.04
H      17.71      10.00       5.21
H      16.15      10.37       3.30
H      16.53      14.63       3.83
H      18.10      14.24       5.73
H       9.09       7.87      43.04
H      13.53      10.79       0.04
H      13.41      15.08       0.46
H       8.96      12.15      43.47
H       3.68      13.68       6.16
H       5.21      13.95       4.20
H       3.79      10.22       2.58
H       2.31       9.93       4.57
H       6.35      12.03      43.48
H       7.32      14.79       0.42
H       4.68       7.48      44.54
H       6.46       7.76      42.88
H       7.07       2.72      33.38
H       6.57       4.32      35.23
H      10.76       4.48      36.22
H      11.25       2.87      34.40
H       9.88      17.42      33.90
H       9.89      15.92      35.89
H       5.61      16.33      36.20
H       5.61      17.80      34.18
H       9.87      11.53      41.14
H       9.87      13.34      39.47
H       5.56      13.28      39.41
H       5.57      11.47      41.09
H       9.99       8.98      40.95
H      10.15       7.36      39.11
H       5.85       7.18      38.89
H       5.69       8.81      40.73
H       6.58      17.19      27.60
H       7.13      15.68      25.68
H      11.32      16.54      26.21
H      10.76      18.06      28.11
H       8.16      11.44      20.66
H       7.84      13.13      22.42
H      12.12      13.49      22.85
H      12.43      11.80      21.08
H      11.81       3.67      28.54
H      11.91       5.22      26.59
H       8.36       3.39      24.96
H       8.24       1.88      26.95
H      12.60       9.19      21.10
H      12.51       7.41      22.80
H       8.27       7.01      22.16
H       8.35       8.82      20.49
H       3.27       8.86      11.00
H       4.92       8.54      12.85
H       4.61      12.73      13.84
H       2.95      13.03      12.01
H      17.57      13.30      11.51
H      16.07      13.14      13.51
H      16.96       8.93      13.81
H      18.42       9.10      11.79
H      11.71      12.63      18.76
H      13.51      12.84      17.08
H      13.93       8.55      17.02
H      12.13       8.35      18.70
H       9.17      12.46      18.56
H       7.53      12.44      16.72
H       7.84       8.15      16.50
H       9.48       8.18      18.35
C       6.81      -0.42      16.80
C       7.84       0.26      17.49
C       7.54       1.10      18.55
C       6.19       1.29      18.96
C       5.17       0.61      18.26
C       5.48      -0.23      17.20
C       5.13       5.79      24.06
C       6.42       5.41      23.65
C       6.60       4.45      22.65
C       5.49       3.86      22.01
C       4.20       4.25      22.41
C       4.03       5.21      23.41
C       5.43      14.62      16.90
C       4.39      13.68      17.01
C       4.33      12.82      18.10
C       5.30      12.90      19.13
C       6.34      13.85      19.02
C       6.41      14.69      17.92
C       4.96       8.18      24.13
C       3.80       8.59      23.45
C       3.85       9.60      22.49
C       5.07      10.23      22.17
C       6.23       9.82      22.85
C       6.18       8.80      23.80
C      12.44       6.34      33.38
C      11.88       7.60      33.14
C      10.97       7.78      32.11
C      10.58       6.69      31.30
C      11.14       5.42      31.55
C      12.07       5.25      32.57
C      -2.63       6.09      33.24
C      -1.97       4.95      32.75
C      -1.14       5.04      31.64
C      -0.96       6.28      30.97
C      -1.64       7.42      31.47
C      -2.45       7.33      32.59
C       3.66       6.82      25.90
C       3.24       5.57      26.37
C       2.23       5.45      27.32
C       1.60       6.59      27.85
C       2.00       7.86      27.35
C       3.01       7.96      26.41
C       6.04       6.98      26.14
C       6.58       5.79      26.64
C       7.50       5.79      27.69
C       7.90       7.01      28.28
C       7.33       8.21      27.81
C       6.41       8.19      26.76
C       4.94       6.95      25.06
C       4.84      19.00      15.69
C       5.48      15.55      15.75
C      13.42       6.15      34.48
C      16.95       5.98      34.41
C       5.69       2.92      20.97
C       5.90       2.15      20.04
C       5.14      11.21      21.15
C       5.23      12.02      20.24
C      -0.11       6.38      29.84
C       0.65       6.48      28.89
C       8.84       6.98      29.34
C       9.65       6.86      30.25
C      -2.55       5.20      39.19
C      -1.99       6.29      39.87
C      -1.12       6.09      40.94
C      -0.78       4.77      41.34
C      -1.34       3.68      40.64
C      -2.21       3.89      39.58
C       6.54       7.27       1.67
C       6.02       8.51       1.26
C       5.05       8.59       0.26
C       1.85       4.37      44.39
C       5.12       6.18       0.03
C       6.08       6.12       1.02
C      12.55       5.51      39.29
C      11.73       4.38      39.40
C      10.89       4.22      40.49
C      10.86       5.19      41.52
C      11.69       6.33      41.41
C      12.51       6.49      40.30
C       8.93       7.38       1.75
C       9.48       6.27       1.07
C      10.47       6.43       0.10
C       8.23       4.66      44.55
C      10.42       8.83       0.46
C       9.42       8.66       1.41
C       6.26      14.60      11.00
C       7.58      14.19      10.75
C       7.87      13.30       9.73
C       6.83      12.79       8.91
C       5.50      13.21       9.16
C       5.22      14.11      10.19
C       7.71      -0.40      10.86
C       6.50       0.13      10.37
C       6.50       0.96       9.25
C       7.71       1.28       8.59
C       8.92       0.74       9.08
C       8.92      -0.08      10.21
C       7.73       5.93       3.52
C       6.53       5.38       3.99
C       6.52       4.36       4.94
C       7.74       3.86       5.46
C       8.95       4.39       4.97
C       8.94       5.41       4.02
C       7.62       8.31       3.76
C       6.38       8.72       4.26
C       6.28       9.63       5.30
C       7.44      10.16       5.90
C       8.70       9.73       5.42
C       8.78       8.81       4.38
C       7.71       7.22       2.67
C      16.97       5.42      38.08
C      13.47       5.67      38.13
C       5.97      15.56      12.09
C       5.41      19.04      12.03
C       0.90       4.46      43.35
C       0.11       4.58      42.43
C       9.20       4.84      43.54
C       9.99       5.02      42.62
C       7.71       2.13       7.46
C       7.73       2.90       6.51
C       7.31      11.10       6.95
C       7.10      11.89       7.86
C      18.00      12.10       5.58
C      17.44      11.01       4.90
C      16.58      11.21       3.83
C      16.24      12.53       3.43
C      16.79      13.62       4.13
C      17.66      13.41       5.19
C       8.91      10.02      43.10
C       9.44       8.79      43.51
C      10.40       8.71      44.51
C      13.61      12.93       0.38
C      10.34      11.12      44.75
C       9.37      11.18      43.75
C       2.90      11.79       5.48
C       3.72      12.92       5.37
C       4.56      13.08       4.28
C       4.60      12.11       3.25
C       3.77      10.97       3.36
C       2.94      10.81       4.47
C       6.52       9.92      43.03
C       5.98      11.03      43.70
C       4.99      10.87      44.67
C       7.22      12.64       0.22
C       5.03       8.47      44.31
C       6.04       8.64      43.36
C       9.19       2.70      33.78
C       7.87       3.11      34.02
C       7.59       4.00      35.04
C       8.63       4.51      35.86
C       9.96       4.09      35.61
C      10.23       3.19      34.59
C       7.74      17.70      33.91
C       8.95      17.17      34.41
C       8.95      16.34      35.52
C       7.75      16.02      36.19
C       6.54      16.56      35.69
C       6.54      17.38      34.56
C       7.72      11.37      41.25
C       8.92      11.92      40.78
C       8.93      12.94      39.84
C       7.72      13.44      39.31
C       6.51      12.91      39.80
C       6.52      11.89      40.75
C       7.83       8.99      41.01
C       9.08       8.58      40.51
C       9.17       7.67      39.47
C       8.01       7.14      38.87
C       6.76       7.57      39.35
C       6.67       8.49      40.39
C       7.74      10.08      42.10
C      -1.52      11.88       6.70
C       1.98      11.63       6.64
C       9.49       1.74      32.68
C      10.05      -1.74      32.74
C      14.56      12.84       1.42
C      15.35      12.72       2.35
C       6.26      12.46       1.23
C       5.47      12.28       2.15
C       7.74      15.17      37.31
C       7.72      14.40      38.27
C       8.15       6.20      37.82
C       8.35       5.41      36.91
C       8.64      17.72      27.97
C       7.61      17.04      27.28
C       7.92      16.20      26.22
C       9.26      16.01      25.81
C      10.29      16.69      26.52
C       9.97      17.53      27.58
C      10.32      11.51      20.71
C       9.04      11.89      21.12
C       8.85      12.85      22.12
C       9.96      13.44      22.76
C      11.25      13.05      22.36
C      11.43      12.09      21.36
C      10.02       2.68      27.87
C      11.06       3.62      27.76
C      11.12       4.48      26.67
C      10.15       4.40      25.64
C       9.11       3.45      25.75
C       9.05       2.61      26.86
C      10.49       9.12      20.64
C      11.65       8.71      21.32
C      11.61       7.70      22.28
C      10.38       7.07      22.60
C       9.22       7.48      21.92
C       9.28       8.50      20.97
C       3.01      10.96      11.39
C       3.57       9.70      11.63
C       4.49       9.52      12.66
C       4.87      10.61      13.47
C       4.31      11.88      13.22
C       3.39      12.05      12.20
C      18.08      11.21      11.53
C      17.42      12.35      12.02
C      16.59      12.26      13.13
C      16.42      11.02      13.80
C      17.09       9.88      13.30
C      17.90       9.97      12.18
C      11.79      10.48      18.87
C      12.21      11.73      18.40
C      13.22      11.85      17.45
C      13.85      10.71      16.92
C      13.46       9.44      17.42
C      12.44       9.34      18.37
C       9.42      10.32      18.63
C       8.87      11.51      18.13
C       7.96      11.51      17.08
C       7.55      10.29      16.49
C       8.13       9.09      16.96
C       9.05       9.11      18.01
C      10.51      10.35      19.71
C      10.61      -1.70      29.08
C       9.97       1.75      29.02
C       2.03      11.15      10.29
C      -1.49      11.32      10.36
C       9.76      14.38      23.81
C       9.55      15.15      24.73
C      10.31       6.09      23.62
C      10.22       5.28      24.54
C      15.57      10.92      14.93
C      14.80      10.82      15.88
C       6.61      10.32      15.43
C       5.80      10.44      14.52
O       6.06      18.92      15.32
O       3.87      18.33      15.19
O       4.44      15.61      15.00
O       6.55      16.24      15.59
O      13.74       7.17      35.19
O      13.89       4.96      34.64
O      16.49       7.08      34.91
O      16.67       4.80      34.84
O      16.76       6.62      37.70
O      16.41       4.37      37.58
O      13.65       4.64      37.39
O      14.04       6.81      37.98
O       6.95      15.98      12.80
O       4.74      15.89      12.26
O       6.54      18.71      12.52
O       4.27      18.63      12.45
O      -1.30      10.68       7.07
O      -0.96      12.93       7.19
O       1.80      12.66       7.39
O       1.41      10.49       6.79
O       8.50       1.32      31.97
O      10.72       1.41      32.52
O       8.91      -1.41      32.25
O      11.19      -1.33      32.32
O       9.39      -1.62      29.45
O      11.59      -1.03      29.58
O      11.01       1.69      29.77
O       8.90       1.06      29.18
O       1.72      10.13       9.59
O       1.56      12.34      10.13
O      -1.04      10.22       9.86
O      -1.22      12.50       9.93
