26

C       7.40       4.95      41.08
H       7.50      -1.06      43.20
H       7.40       0.72      39.07
H       8.56       0.96      43.21
O       7.19       5.50      39.95
C       8.00       0.66      41.15
O       9.08      -5.65      40.13
O       7.48       5.54      42.21
O       8.69      -5.70      42.36
H       7.07       3.19      39.03
C       7.39       2.69      39.94
C       7.93      -1.56      42.33
C       8.93      -2.87      40.08
C       8.23      -0.81      41.18
H       7.90      -3.52      43.25
H       9.33      -3.39      39.22
H       8.17       3.42      43.16
H       9.00      -0.92      39.16
C       8.21       1.44      42.30
C       8.64      -3.61      41.24
C       7.59       1.31      39.97
C       7.59       3.46      41.10
C       8.82      -5.10      41.24
C       8.14      -2.94      42.36
C       8.74      -1.49      40.06
C       8.00       2.82      42.28
