57

C       7.82       8.92      35.68
C       8.68       9.82      24.53
C       5.87      10.42      22.50
C       5.62      11.91      25.53
H       7.91       6.24      31.96
H       7.83      13.11      20.61
H       4.88       7.28      35.22
H       8.86       8.92      37.59
H       5.30       9.63      22.99
N       6.61      11.44      20.46
H       7.85       6.53      33.72
N       6.75      10.82      28.97
N       7.11       7.82      37.70
H       5.14      11.44      31.77
H       6.45       5.84      32.88
C       5.59      11.12      34.41
C       7.29      12.36      21.19
H       7.85      13.10      23.13
C       7.62      10.51      25.36
H       4.71      12.98      23.86
H       8.41       9.81      27.25
C       6.42       8.85      33.58
C       7.63      10.39      26.75
H       4.65      10.53      29.41
H       5.55       9.12      28.85
H       5.33       6.78      37.65
H       6.77      11.71      29.46
H       6.67       7.66      30.40
H       8.25       9.08      23.85
H       4.93      12.29      27.54
C       6.68       8.47      34.99
H       5.11      10.65      35.27
H       8.55       9.54      35.17
H       9.41       9.31      25.18
C       6.44       8.35      31.21
C       4.49      12.69      24.89
H       3.57      12.08      24.87
H       5.39       9.78      20.47
H       4.26      13.60      25.46
H       6.52      11.58      34.78
C       6.60      11.27      24.75
H       4.95      11.93      34.05
C       5.68      11.79      26.93
C       5.91      10.49      21.11
C       6.57      11.35      23.26
C       5.88       9.59      30.92
C       5.88      10.13      33.30
H       9.23      10.54      23.90
C       5.62      10.01      29.49
C       8.00       8.58      37.02
C       6.67      11.03      27.55
C       5.78       7.66      35.71
C       5.60      10.47      31.98
C       7.29      12.35      22.58
C       6.71       7.95      32.53
C       7.27       6.58      32.79
C       6.02       7.37      37.05
