41

Mg      -1.14       2.73      11.53
Mg       1.55      -0.55       5.65
Cd       0.20       0.48       8.93
C      -0.34      -0.45       3.19
Cd      -1.34       3.78      14.88
C       0.65      -5.07       1.94
Cd       1.75      -2.84       3.00
C       2.83      -3.46       5.50
C       3.60      -0.35       3.17
O       1.65       2.15       8.65
O       1.58      -0.51      10.48
O       0.31       1.11      11.34
O       2.24       0.85       6.92
O      -1.25       1.60       7.66
O      -1.17      -1.36       8.96
O       0.10      -1.24       7.13
O      -1.84       2.39       9.68
O       0.28       5.07      13.91
O      -1.24       4.28      17.16
O       0.34       4.00      11.91
O       0.26       2.88      16.32
O      -1.58       1.97      13.33
O      -2.64       4.19      11.81
O      -2.75       1.78      15.21
O      -2.90       5.02      13.91
O       0.13      -1.33       2.41
O       1.65      -4.51       1.37
C       2.37       1.91       7.62
C       1.20       0.19      11.48
O       0.07      -0.20       4.37
O       0.15      -4.54       3.00
O       1.99      -2.47       5.35
O       3.05      -0.02       4.27
O       3.16      -4.17       4.52
O       3.31      -1.36       2.45
C      -1.96       2.35       8.41
C      -0.79      -1.84       7.83
C       0.75       4.87      12.74
C      -0.24       3.50      17.33
C      -2.42       1.32      14.09
C      -3.20       4.94      12.67
