41

C      11.92       2.88       1.38
Mg       9.87       5.09       2.51
Mg       7.18       8.37       8.40
Cd       8.52       7.34       5.11
Cd       6.97      10.66      11.05
Cd      10.07       4.05      -0.84
C       7.98       2.95       1.30
C       8.97       4.32      -3.29
O       7.07       5.67       5.40
O       7.15       8.33       3.56
O       8.42       6.71       2.70
O       6.48       6.98       7.13
O       9.97       6.22       6.38
O       9.90       9.18       5.09
O       8.63       9.06       6.91
O      10.56       5.43       4.36
O       6.74      10.29       8.69
O       5.68       7.84       9.78
O       5.57      11.99       9.52
O       5.42       9.18      11.59
O       8.60       9.15      11.64
O       7.08      12.34      12.68
O       8.66       8.02       9.67
O       8.58      12.36      11.05
O      10.31       5.85       0.71
O      11.37       3.63       2.23
O      11.48       6.04      -1.17
O      11.63       2.80       0.13
O       8.45       2.75       0.14
O       9.97       3.54      -3.12
O       8.39       3.82       2.13
O       8.47       4.94      -2.28
C       6.36       5.91       6.42
C       7.53       7.63       2.56
C      10.69       5.47       5.63
C       9.52       9.66       6.21
C       5.90      11.28       8.54
C       5.12       8.17      10.87
C       9.07       8.27      10.85
C       8.08      12.89      12.11
C      11.15       6.50      -0.05
