29

C      -1.27      10.74      15.75
C      -0.93      11.94      16.55
C       0.36      12.05      17.09
C       0.70      13.17      17.84
C      -0.27      14.15      18.09
C      -1.55      14.06      17.55
C      -1.87      12.96      16.76
C       0.09      14.84      20.75
C       1.11      13.96      21.15
C       1.01      13.32      22.38
C      -0.09      13.58      23.23
C      -1.07      14.51      22.84
C      -1.00      15.12      21.58
C      -0.18      12.85      24.52
H       1.10      11.29      16.89
H       1.71      13.28      18.22
H      -2.27      14.85      17.73
H      -2.86      12.88      16.31
H       1.97      13.79      20.51
H       1.77      12.63      22.71
H      -1.90      14.74      23.51
H      -1.78      15.81      21.26
S       0.19      15.55      19.11
O      -0.35       9.85      15.54
O      -1.09      13.19      25.36
O      -2.46      10.55      15.30
O       0.67      11.92      24.72
O      -0.84      16.57      18.99
O       1.60      15.82      18.82
