29

H      -1.41       2.77       4.60
H      -0.81       4.68       3.13
H       3.19       3.10       2.74
H       2.56       1.15       4.11
H      -0.18       5.51      -0.48
H      -0.19       4.37      -2.70
H       3.47       2.33      -1.67
H       3.56       3.56       0.49
S       1.67       5.34       1.76
O       1.12      -0.26       5.51
O       0.72       2.78      -4.46
O      -1.01       0.38       5.63
O       2.37       1.46      -3.65
O       3.06       5.66       2.07
O       0.61       6.34       1.80
C       0.19       0.62       5.22
C       0.52       1.79       4.41
C      -0.42       2.81       4.15
C      -0.09       3.89       3.34
C       1.21       3.98       2.81
C       2.17       3.00       3.11
C       1.82       1.91       3.88
C       1.67       4.57       0.14
C       0.62       4.81      -0.75
C       0.61       4.16      -1.98
C       1.61       3.23      -2.30
C       2.68       3.02      -1.40
C       2.72       3.70      -0.19
C       1.56       2.45      -3.55
