224

C       7.24       2.27       8.81
C       6.68       3.58       9.24
C       7.25       4.29      10.31
C       6.71       5.50      10.72
C       5.59       6.05      10.07
C       5.02       5.33       9.00
C       5.56       4.12       8.59
C       4.98       7.31      10.49
C       5.47       8.14      11.43
C      19.95       9.32      11.99
C      20.47       9.83      13.19
C      19.82      10.85      13.87
C      18.64      11.40      13.35
C      18.15      10.96      12.11
C      18.80       9.93      11.44
C      17.88      12.40      14.17
C       4.52       0.39       6.01
C       3.40       0.39       5.20
C      11.01      13.61       3.94
C      12.21      12.98       3.57
C      13.29      13.01       4.44
C       9.85      13.68       3.07
C       9.87      13.58       1.73
C       8.69      13.72       0.87
C       9.76      12.66      15.86
C       8.63      12.76      14.97
C       8.35      11.65      14.11
C       9.15      10.53      14.10
C      10.25      10.43      14.99
C      10.53      11.46      15.86
C       9.96       2.27      15.01
C      10.53       3.58      14.58
C       9.96       4.29      13.51
C      10.49       5.50      13.10
C      11.62       6.05      13.74
C      12.19       5.33      14.81
C      11.65       4.12      15.23
C      12.23       7.31      13.33
C      11.73       8.14      12.38
C      12.37       9.32      11.83
C      11.85       9.83      10.62
C      12.50      10.85       9.94
C      13.68      11.40      10.46
C      14.16      10.96      11.70
C      13.51       9.93      12.38
C      14.44      12.40       9.65
C      11.28       0.39       1.93
C      12.41       0.39       2.74
C      19.91      13.61       4.00
C      18.70      12.98       4.37
C      17.63      13.01       3.50
C      21.07      13.68       4.87
C      21.05      13.58       6.21
C      22.23      13.72       7.07
C      22.55      12.66       7.95
C       8.58      12.76       8.84
C       8.86      11.65       9.71
C       8.06      10.53       9.72
C       6.95      10.43       8.83
C      21.78      11.46       7.96
C      16.82      11.55       7.07
C      17.39      10.24       6.64
C      16.81       9.53       5.57
C      17.35       8.32       5.16
C      18.48       7.77       5.80
C      19.04       8.49       6.87
C      18.51       9.70       7.29
C      19.09       6.52       5.39
C      18.59       5.68       4.45
C       4.11       4.50       3.89
C       3.60       3.99       2.68
C       4.25       2.97       2.00
C       5.42       2.42       2.52
C       5.91       2.86       3.77
C       5.26       3.89       4.44
C       6.18       1.42       1.71
C      19.54      13.43       9.87
C      20.66      13.43      10.68
C      13.05       0.22      11.94
C      11.85       0.84      12.31
C      10.77       0.81      11.44
C      14.21       0.14      12.81
C      14.19       0.25      14.15
C      15.38       0.11      15.01
C      14.30       1.16       0.01
C      15.44       1.06       0.90
C      15.71       2.17       1.77
C      14.91       3.29       1.78
C      13.81       3.39       0.89
C      13.53       2.37       0.02
C      14.10      11.55       0.87
C      13.53      10.24       1.30
C      14.11       9.53       2.37
C      13.57       8.32       2.78
C      12.44       7.77       2.13
C      11.87       8.49       1.06
C      12.41       9.70       0.65
C      11.83       6.52       2.55
C      12.33       5.68       3.49
C      11.70       4.50       4.05
C      12.21       3.99       5.25
C      11.56       2.97       5.94
C      10.38       2.42       5.42
C       9.90       2.86       4.17
C      10.55       3.89       3.50
C       9.62       1.42       6.23
C      12.78      13.43      13.95
C      11.66      13.43      13.14
C       4.15       0.22      11.87
C       5.36       0.84      11.50
C       6.44       0.81      12.37
C       2.99       0.14      11.01
C       3.01       0.25       9.66
C       1.83       0.11       8.81
C       1.51       1.16       7.92
C      15.48       1.06       7.04
C      15.21       2.17       6.17
C      16.01       3.29       6.16
C      17.11       3.39       7.05
C       2.28       2.37       7.92
H       8.12       3.86      10.81
H       7.16       6.01      11.57
H       4.14       5.74       8.50
H       5.12       3.57       7.75
H      19.13       7.54      10.02
H       6.43       7.88      11.91
H      21.36       9.38      13.62
H      20.19      11.22      14.83
H      17.26      11.43      11.69
H      18.40       9.59      10.48
H       4.53       0.89       6.97
H       2.50       0.90       5.53
H      12.32      12.48       2.61
H      14.24      12.56       4.17
H       1.34       0.07       3.56
H      10.83      13.39       1.23
H      22.59      11.70      13.45
H       8.92       9.71      13.42
H      10.86       9.53      14.98
H       9.96      11.36       0.69
H       9.09       3.86      13.01
H      10.05       6.01      12.24
H      13.07       5.74      15.31
H      10.68       3.57       0.18
H      13.19       7.54      13.80
H      10.78       7.88      11.91
H      10.95       9.38      10.20
H      12.13      11.22       8.98
H      15.05      11.43      12.13
H      13.92       9.59      13.33
H      11.27       0.89       0.97
H      13.31       0.90       2.41
H      18.60      12.48       5.33
H      16.67      12.56       3.77
H      14.47       0.07       4.38
H      20.09      13.39       6.71
H       9.72      11.70      10.36
H       8.28       9.71      10.40
H       6.34       9.53       8.83
H      20.96      11.36       7.25
H      15.94       9.96       5.07
H      16.90       7.81       4.31
H      19.92       8.08       7.37
H      18.94      10.26       8.12
H       4.93       6.28       5.86
H      17.64       5.94       3.97
H       2.70       4.44       2.26
H       3.87       2.60       1.05
H       6.80       2.40       4.19
H       5.66       4.23       5.39
H      19.53      12.93       8.90
H      21.56      12.92      10.35
H      11.75       1.34      13.27
H       9.82       1.26      11.71
H      22.72      13.76      12.31
H      13.23       0.43      14.65
H       1.47       2.12       2.42
H      15.14       4.11       2.46
H      13.20       4.30       0.90
H      14.11       2.47      15.19
H      14.98       9.96       2.87
H      14.02       7.81       3.63
H      10.99       8.08       0.56
H      13.38      10.26      15.69
H      10.87       6.28       2.08
H      13.28       5.94       3.97
H      13.11       4.44       5.68
H      11.93       2.60       6.89
H       9.01       2.40       3.75
H      10.14       4.23       2.55
H      12.79      12.93      14.91
H      10.75      12.92      13.47
H       5.46       1.34      10.55
H       7.39       1.26      12.10
H       9.59      13.76      11.50
H       3.97       0.43       9.16
H      14.34       2.12       5.52
H      15.78       4.11       5.48
H      17.72       4.30       7.04
H       3.10       2.47       8.63
N      13.23      13.62       5.64
N      17.69      13.62       2.30
N      10.83       0.21      10.24
N       6.37       0.21      13.58
O       6.66       1.68       7.84
O       8.26       1.83       9.45
O      18.40      12.76      15.28
O      16.76      12.80      13.71
O       9.15       1.68       0.10
O       8.95       1.83      14.37
O      13.92      12.76       8.54
O      15.56      12.80      10.10
O      17.40      12.14       8.04
O      15.80      11.99       6.43
O       5.66       1.07       0.60
O       7.30       1.02       2.17
O      14.91      12.14      15.78
O      15.12      11.99       1.51
O      10.14       1.07       7.34
O       8.50       1.02       5.77
Zn      14.80      13.72       6.93
Zn      16.12      13.72       1.01
Zn       9.27       0.11       8.95
Zn       7.94       0.11      14.87
