60

La       3.70       8.83       0.65
La       0.79      -0.50      10.82
H       2.95       4.00      11.05
H       5.53       1.18       9.02
H      -2.57       5.25       9.53
H       5.31       3.38       6.78
H       5.12       2.41       4.48
H      -0.38       0.59       4.92
H      -0.19       1.57       7.23
H       1.54       4.33       0.42
H      -1.03       7.15       2.44
H       7.07       3.08       1.94
H      -0.81       4.95       4.69
H      -0.62       5.92       6.98
H       4.88       7.74       6.54
H       4.68       6.76       4.24
C       4.61       6.13      10.94
C       4.86       4.77      10.37
C       3.88       3.77      10.53
C       4.14       2.47      10.08
C       3.13       1.42      10.36
C       5.32       2.19       9.39
C       6.24       3.21       9.15
C       6.04       4.49       9.68
C      -2.13       2.49       7.13
C       6.10       2.76       6.37
C       6.00       2.22       5.09
C       7.03       1.41       4.58
C       6.86       0.76       3.26
C      -1.18       1.21       5.33
C      -1.06       1.75       6.61
C      -0.11       2.21       0.52
C      -0.36       3.56       1.09
C       0.61       4.56       0.93
C       0.36       5.86       1.39
C       1.37       6.91       1.11
C      -0.82       6.15       2.08
C      -1.74       5.12       2.32
C      -1.55       3.84       1.79
C       6.62       5.84       4.33
C      -1.60       5.57       5.09
C      -1.50       6.11       6.37
C      -2.53       6.92       6.89
C      -2.36       7.57       8.21
C       5.68       7.13       6.13
C       5.56       6.58       4.86
O      -3.77       6.89      11.14
O       3.41       6.44      11.21
O       1.90       1.74      10.45
O       3.50       0.18      10.52
O      -1.97       2.96       8.43
O       5.87       1.09       2.50
O       7.70      -0.14       2.87
O       8.26       1.44       0.32
O       1.09       1.89       0.25
O       2.59       6.60       1.02
O       1.00       8.15       0.95
O       6.47       5.37       3.04
O      -1.37       7.24       8.97
O      -3.21       8.47       8.59
