30

La       5.22       9.04      25.45
C       5.98      10.23      22.04
C       5.88      10.30      28.86
La       2.90       5.02      25.45
C       6.01       6.08      27.02
C       2.26       8.25      23.88
C       3.88      12.28      24.62
C       8.70       9.50      26.28
O       2.69       3.84      27.71
O       4.92       4.97      23.86
O       5.74       7.06      24.13
O       0.53       4.51      25.69
O       5.43      10.23      27.70
C       2.14       3.83      22.04
C       2.25       3.77      28.87
O       3.21       9.09      23.86
O       2.38       7.00      24.13
O       7.59       9.56      25.67
O       1.97       4.24      23.20
C       2.11       7.98      27.02
C       5.86       5.81      23.88
O       1.85       6.74      27.04
C       4.24       1.78      24.62
O       3.24       8.50      26.77
C      -0.58       4.56      26.29
O       3.64       2.71      25.23
O       6.14       9.81      23.20
O       6.27       7.32      27.04
O       4.87       5.57      26.77
O       4.48      11.35      25.23
