48

Cu      -1.72       0.70      10.34
Cu       0.92      -2.96       6.35
Cu      -4.34       2.30       5.17
Cu       1.67      -0.67      11.52
Cu      -0.97       2.99      15.51
Cu      -0.95       3.99       5.76
C       0.81       1.49      13.51
C      -1.24       1.65      12.89
C      -2.70       1.88      12.70
C      -1.84       0.19      16.37
C       1.40      -5.64       5.90
C      -0.06      -5.59       6.20
C       3.46      -1.65      13.82
C       1.40      -2.27      13.98
C      -0.06      -2.55      13.87
C      -0.86      -1.46       8.35
C       1.19      -1.62       8.97
C       2.65      -1.85       9.16
C       1.79      -0.16       5.49
C      -1.45       5.67      15.96
C       0.01       5.62      15.66
C      -3.51       1.68       8.04
C      -1.45       2.30       7.88
C       0.01       2.58       7.99
N       0.70       0.83      12.32
N      -0.61       0.96      11.95
N      -0.39       2.00      13.89
N      -1.95       1.54      16.41
N       2.04      -4.48       5.79
N      -0.33       5.86       5.69
N      -1.91       3.91       4.05
N      -3.21       3.52       4.12
N       2.26      -1.58      13.17
N      -0.75      -0.80       9.54
N       0.56      -0.93       9.91
N       0.34      -1.97       7.97
N       1.90      -1.51       5.45
N      -2.09       4.51      16.07
N      -4.96       0.43       5.24
N      -3.38       2.38       6.88
N      -2.08       2.77       6.81
N      -2.31       1.61       8.69
O      -3.14       1.42      11.55
O      -0.50      -4.37       6.37
O      -5.75       2.98       3.92
O       3.09      -1.39      10.31
O       0.45       4.40      15.49
O       0.46       3.31       7.01
