10

O       4.00       2.32      11.70
O       3.17      -2.37      11.76
O       6.24       2.55      11.47
H       3.15       0.17      11.76
H       6.26       0.00      11.48
C       4.24      -1.66      11.65
C       4.14      -0.27      11.66
C       5.27       0.44      11.57
O       5.41      -2.14      11.53
C       5.17       1.84      11.59
