66

H       8.92       5.47      21.77
H       9.48       2.90      30.91
H       2.15       6.00      15.58
H       5.07       9.39      28.40
H       7.12       0.71      20.25
H       2.70       3.35      24.69
H       9.02       5.73      24.18
H       2.60       3.09      22.28
H       7.02       2.83      28.02
H       4.61       6.01      18.45
C       5.94       3.15      16.18
C       5.58       5.81      28.87
C       6.04       3.03      17.58
C       6.07       4.75      28.08
C       5.55       4.08      18.38
C       6.45       4.50      32.28
C       5.18       4.37      14.18
C       4.58       3.71      20.54
C       7.04       5.12      25.92
C       6.81       4.55      20.36
C       4.81       4.27      26.10
C       6.90       4.69      21.75
C       4.72       4.13      24.72
C       5.78       4.33      22.53
C       5.84       4.49      23.93
C       4.62       3.83      21.93
C       7.01       4.99      24.53
C       8.06       5.19      22.36
C       6.66       3.63      28.66
C       3.56       3.63      24.10
C       8.11       5.34      23.74
C       3.51       3.48      22.72
C       4.96       5.21      17.81
C       6.79       3.52      30.04
C       4.85       5.33      16.43
C       6.30       4.57      30.84
C       5.34       4.30      15.62
C       5.69       5.71      30.27
S       7.50       2.05      30.72
S       4.14       6.82      15.76
S       4.84       7.26      28.15
S       6.78       1.58      18.30
N       5.67       4.07      19.79
N       5.95       4.76      26.67
Cl       5.08       7.00      31.32
Cl       6.55       1.87      15.12
O       8.15       5.58      26.53
O       7.86       4.90      19.58
O       3.76       3.92      26.88
O       6.52       1.42      31.67
O       7.84       1.06      29.64
O       8.91       2.43      31.57
O       3.83       7.81      16.84
O       5.13       7.44      14.80
O       2.73       6.46      14.92
O       4.96       7.28      26.65
O       3.38       7.29      28.52
O       5.59       8.63      28.76
O       6.12       0.36      17.73
O       8.24       1.56      17.93
O       6.64       1.53      19.98
O       7.63       4.63      32.78
O       4.00       4.25      13.68
O       5.39       4.40      33.01
O       6.24       4.48      13.45
O       3.46       3.24      19.93
