24

O       8.07      21.25      17.44
O      11.36      21.29      17.53
Zn       9.69      20.40      18.16
Zn      11.22      20.95      20.81
O      12.50      19.30      21.02
Zn       8.13      20.87      21.08
O      11.27      17.44      21.51
Zn       9.67      18.13      20.53
O      11.25      21.44      22.71
O      12.51      21.63      19.47
C       6.96      18.18      21.66
C       9.17      23.40      21.23
O       8.02      17.50      21.44
O       8.12      22.78      21.64
O       9.76      18.67      17.18
O       9.72      17.10      18.84
O       9.64      20.02      20.09
O       6.84      19.45      21.64
C      10.22      21.24      23.46
C      12.36      18.10      21.42
C       7.01      21.37      18.16
C      12.41      21.55      18.21
O       6.92      21.24      19.41
C       9.79      17.47      17.61
