14

C       1.03       5.38      17.70
H      -0.85       7.30      13.85
C       0.10       7.01      14.28
C       1.23       7.22      13.58
H       2.20       6.93      13.98
C       0.05       6.37      15.64
H      -0.94       6.20      16.04
C       1.13       6.02      16.37
O       0.13       8.20      11.68
O       2.42       8.04      11.72
H       2.13       6.18      15.99
O       2.14       5.05      18.27
O      -0.15       5.21      18.24
C       1.25       7.87      12.25
