28

H       1.33       4.26       9.58
H       1.25       1.11       6.07
H       1.33       2.22       8.23
H       1.01       6.67       6.08
H       0.84       4.64       0.35
H       0.96       6.75       4.01
H       0.85       6.74       1.61
H       1.13       1.18       3.67
C       1.21       6.81       8.69
C       1.26       3.18       7.73
C       1.16       5.58       7.89
C       0.90       4.61       1.43
C       0.90       5.80       2.14
C       0.97       5.79       3.53
C       1.04       4.57       4.25
C       1.05       3.35       3.51
C       1.09       4.52       5.68
C       1.18       3.26       6.33
C       1.19       2.08       5.58
C       1.12       2.12       4.20
C       1.08       5.68       6.49
C       1.26       4.34       8.50
C       0.98       3.38       2.10
C       0.93       2.16       1.30
O       0.09       7.39       8.97
O       2.38       7.24       9.03
O       2.05       1.57       1.01
O      -0.24       1.72       0.96
