14

C       4.56      12.53       2.26
Cl       7.30      10.13       5.92
O       5.84       9.88       8.25
O       3.55       9.72       8.29
H       6.64      11.83       3.81
C       5.68      11.57       4.25
C       4.56      11.86       3.57
C       5.72      10.83       5.54
H       3.59      11.56       3.96
C       4.64      10.69       6.37
O       5.69      12.87       1.70
O       3.40      12.71       1.73
H       3.68      11.10       6.08
C       4.68      10.03       7.70
