28

H       4.28      13.64      10.40
H       4.10      16.77      13.91
H       4.09      15.67      11.75
H       4.95      11.27      13.88
H       5.07      13.31      19.61
H       5.08      11.20      15.95
H       5.26      11.22      18.34
H       4.29      16.72      16.31
C       4.71      11.12      11.28
C       4.28      14.72      12.25
C       4.64      12.34      12.08
C       4.97      13.34      18.53
C       5.09      12.15      17.82
C       4.98      12.16      16.43
C       4.75      13.36      15.71
C       4.62      14.57      16.46
C       4.65      13.40      14.29
C       4.41      14.65      13.64
C       4.28      15.82      14.40
C       4.39      15.78      15.78
C       4.77      12.25      13.47
C       4.39      13.57      11.47
C       4.74      14.54      17.87
C       4.67      15.77      18.67
O       3.59      10.53      11.00
O       5.88      10.69      10.94
O       3.50      16.20      19.01
O       5.78      16.35      18.95
