26

C       2.25       4.31      11.93
C       1.99       5.47      12.65
C       1.53       2.10      10.94
O       0.32      11.05      16.97
O      -1.82      10.41      16.76
O       0.55       1.34      10.71
O       2.69       1.98      10.48
H      -2.04       8.94      14.73
H      -1.48       7.12      13.39
H       2.29       7.16      14.88
H       1.75       9.05      16.15
H      -1.03       4.74      13.64
H      -0.58       2.78      12.46
H       3.09       4.19      11.50
H       2.66       6.14      12.72
C      -0.59      10.31      16.52
C      -0.21       9.16      15.60
C      -1.16       8.58      14.77
C      -0.83       7.49      13.97
C       0.45       6.92      14.02
C       1.41       7.52      14.85
C       1.08       8.64      15.62
C       0.76       5.67      13.28
C      -0.20       4.64      13.21
C       0.07       3.47      12.49
C       1.28       3.30      11.83
