26

H       4.06       8.94      12.84
H       4.62       7.12      14.19
H       8.38       7.16      12.69
H       7.85       9.05      11.42
O       6.41      11.05      10.60
O       4.27      10.41      10.82
H       9.18       4.19      16.07
H       8.76       6.14      14.86
H       5.52       2.78      15.11
O       6.65       1.34      16.86
O       8.79       1.98      17.10
H       5.07       4.74      13.93
C       5.50      10.31      11.06
C       5.89       9.16      11.97
C       4.94       8.58      12.81
C       5.27       7.49      13.61
C       6.55       6.92      13.55
C       7.50       7.52      12.73
C       7.18       8.64      11.96
C       6.85       5.67      14.30
C       5.90       4.64      14.37
C       6.17       3.47      15.08
C       7.38       3.30      15.75
C       8.34       4.31      15.64
C       8.09       5.47      14.92
C       7.63       2.10      16.64
