26

O       8.19       0.70       8.53
H      10.98       5.18      10.35
H      10.93       2.86      10.19
H       7.75       3.09       7.70
O      10.19       0.57       9.46
H       7.85       5.42       7.80
O      10.60      11.89       9.85
O       8.60      12.03       8.93
H       7.86       9.74       8.20
H       7.81       7.42       8.03
H      10.94       7.18      10.59
H      11.04       9.50      10.68
C       9.24       1.25       8.95
C       9.33       2.74       8.95
C      10.29       3.37       9.72
C      10.32       4.76       9.81
C       9.39       5.56       9.13
C       8.46       4.90       8.31
C       8.41       3.51       8.24
C       9.55      11.34       9.44
C       9.46       9.85       9.44
C       8.50       9.22       8.66
C       8.48       7.83       8.57
C       9.40       7.04       9.26
C      10.33       7.69      10.07
C      10.38       9.08      10.15
