24

H       2.61       1.60       3.61
H       4.54      -1.52       6.39
H       5.05      -1.59       4.10
H       1.90       1.14       8.08
H      -0.04       4.26       5.30
H      -0.54       4.33       7.59
C       2.72       0.87       5.53
C       3.00       0.93       4.16
C       4.13      -0.90       5.81
C       4.15      -0.03       2.15
C       3.85      -0.03       3.62
C       4.44      -0.94       4.45
C       1.79       1.87       6.16
C       1.51       1.81       7.53
C       0.38       3.64       5.88
C       0.36       2.77       9.55
C       0.66       2.77       8.07
C       0.06       3.68       7.25
N       3.28      -0.01       6.35
N       1.23       2.75       5.35
O       4.82      -1.00       1.70
O       3.71       0.94       1.45
O      -0.31       3.74       9.99
O       0.79       1.80      10.24
