9

Ni       3.31       3.27      22.80
O       4.60       3.78      21.55
C       2.22       1.80      24.78
C       1.82       2.18      20.82
O       2.82       1.91      21.63
C       4.54       4.98      21.05
O       1.94       2.78      23.95
O       3.79       4.55      24.06
C       4.99       4.52      24.57
