9

O       7.01       6.20       8.83
Ni       7.52       7.51       7.60
C       8.59       8.99       9.59
C       5.82       6.27       9.35
O       6.27       7.03       6.29
O       8.84       7.98       8.81
O       8.03       8.91       6.48
C       8.99       8.62       5.64
C       6.29       5.83       5.81
