12

Zn      15.16       9.09      13.88
O      15.20      11.03      14.56
N      14.54       8.11      15.58
O      15.33       7.37      12.72
O      17.20       8.99      14.22
C      13.02       9.94      11.92
C      15.06       8.17      16.83
C      13.64       7.09      15.60
C      18.05       9.53      13.44
C      15.64       7.40      11.49
O      13.28       9.40      13.04
C      15.42      12.08      13.87
