15

Mg      -4.54       5.72      13.20
O      -5.21       6.60      11.52
C      -4.94       7.86      11.32
O      -4.26       8.54      12.18
Mg      -2.89       8.35      13.61
O      -1.39       8.90      12.40
H      -2.36       5.70      14.19
C      -1.02       8.11      11.42
H      -1.92       6.42      12.59
O      -2.64       6.36      13.39
C      -4.98       7.79      15.50
O      -5.28       6.87      14.63
O      -4.34       4.14      14.42
C      -3.47       4.17      15.40
O      -3.97       8.59      15.29
