15

Mg       9.55       2.29       4.68
Mg       7.90      -0.34       4.27
O      10.29       1.14       3.24
C       9.99       0.23       2.38
O       8.98      -0.57       2.59
O       9.35       3.88       3.46
C       8.48       3.85       2.48
C       9.95       0.15       6.56
O      10.21       1.41       6.35
H       7.37       2.31       3.68
O       9.27      -0.52       5.70
O       6.40      -0.88       5.48
H       6.92       1.60       5.29
C       6.03      -0.10       6.46
O       7.65       1.65       4.49
