144

C       5.08       6.01      26.72
C       7.47       1.43      22.56
C       7.47       2.90      22.50
C       5.05       4.05      25.15
C       5.70       5.20      25.63
C       6.93       5.59      25.08
C       5.63       3.29      24.15
C       6.86       3.68      23.58
C       7.49       4.85      24.06
C      19.01       8.88      26.72
C      16.61      13.46      22.56
C      16.61      11.99      22.50
C      19.03      10.84      25.15
C      18.39       9.69      25.63
C      17.16       9.31      25.08
C      18.45      11.60      24.15
C      17.22      11.22      23.58
C      16.59      10.05      24.06
C      10.98       6.01      16.07
C       8.59       1.43      20.23
C       8.58       2.91      20.29
C      11.01       4.05      17.63
C      10.36       5.20      17.15
C       9.13       5.59      17.70
C      10.42       3.29      18.64
C       9.19       3.68      19.21
C       8.56       4.85      18.73
C      13.10       8.88      16.07
C      15.50      13.46      20.23
C      15.50      11.99      20.29
C      13.08      10.84      17.63
C      13.72       9.69      17.15
C      14.95       9.31      17.70
C      13.66      11.60      18.64
C      14.89      11.22      19.21
C      15.52      10.05      18.73
C      19.01       8.88       1.81
C      16.61      13.46       5.96
C      16.61      11.99       6.03
C      19.03      10.84       3.37
C      18.39       9.69       2.89
C      17.16       9.31       3.44
C      18.45      11.60       4.38
C      17.22      11.22       4.95
C      16.59      10.05       4.47
C       5.08       6.01       1.81
C       7.47       1.43       5.96
C       7.47       2.90       6.03
C       5.05       4.05       3.37
C       5.70       5.20       2.89
C       6.93       5.59       3.44
C       5.63       3.29       4.38
C       6.86       3.68       4.95
C       7.49       4.85       4.47
C      13.10       8.88      12.45
C      15.50      13.46       8.30
C      15.50      11.99       8.24
C      13.08      10.84      10.89
C      13.72       9.69      11.37
C      14.95       9.31      10.82
C      13.66      11.60       9.89
C      14.89      11.22       9.32
C      15.52      10.05       9.80
C      10.98       6.01      12.45
C       8.59       1.43       8.30
C       8.58       2.91       8.24
C      11.01       4.05      10.89
C      10.36       5.20      11.37
C       9.13       5.59      10.82
C      10.42       3.29       9.89
C       9.19       3.68       9.32
C       8.56       4.85       9.80
C       8.03       0.70      21.39
C       8.03       3.55      21.39
C      16.05      14.20      21.39
C      16.05      11.34      21.39
C      16.05      14.20       7.13
C      16.05      11.34       7.13
C       8.03       0.70       7.13
C       8.03       3.55       7.13
Cu      19.10       6.71       0.00
Cu       4.99       8.19       0.00
Cu      13.01       6.71      14.26
Cu      11.07       8.19      14.26
H       4.09       3.76      25.58
H       7.43       6.47      25.48
H       5.13       2.40      23.78
H       8.46       5.14      23.65
H      19.99      11.13      25.58
H      16.66       8.42      25.48
H      18.95      12.49      23.78
H      15.62       9.75      23.65
H      11.97       3.77      17.21
H       8.63       6.47      17.31
H      10.93       2.40      19.01
H       7.60       5.14      19.14
H      12.12      11.13      17.21
H      15.45       8.42      17.31
H      13.16      12.49      19.01
H      16.49       9.75      19.14
H      19.99      11.13       2.95
H      16.66       8.42       3.05
H      18.95      12.49       4.75
H      15.62       9.75       4.88
H       4.09       3.76       2.95
H       7.43       6.47       3.05
H       5.13       2.40       4.75
H       8.46       5.14       4.88
H      12.12      11.13      11.31
H      15.45       8.42      11.22
H      13.16      12.49       9.52
H      16.49       9.75       9.39
H      11.97       3.77      11.31
H       8.63       6.47      11.22
H      10.93       2.40       9.52
H       7.60       5.14       9.39
H       8.03       4.65      21.39
H      16.05      10.25      21.39
H      16.05      10.25       7.13
H       8.03       4.65       7.13
O       3.93       5.64      27.14
O       5.74       7.03      27.13
O       6.87       0.83      23.47
O      20.16       9.25      27.14
O      18.34       7.87      27.13
O      17.22      14.06      23.47
O      12.13       5.64      15.65
O      10.32       7.03      15.65
O       9.19       0.83      19.32
O      11.96       9.25      15.65
O      13.77       7.87      15.65
O      14.89      14.06      19.32
O      20.16       9.25       1.39
O      18.34       7.87       1.39
O      17.22      14.06       5.06
O       3.93       5.64       1.39
O       5.74       7.03       1.39
O       6.87       0.83       5.06
O      11.96       9.25      12.88
O      13.77       7.87      12.87
O      14.89      14.06       9.21
O      12.13       5.64      12.88
O      10.32       7.03      12.87
O       9.19       0.83       9.21
