462

C       6.52      10.11      31.86
C       5.51       9.18      32.18
C       4.71       9.72       0.46
C       5.17      11.00       0.78
C       4.52      11.76       1.77
C       3.40      11.21       2.46
C       2.97       9.90       2.13
C       3.61       9.15       1.13
C       5.42       7.95      31.50
C       6.35       7.67      30.48
C       7.37       8.58      30.15
C       7.46       9.81      30.85
C       6.21      12.58      31.86
C       7.21      13.51      32.18
C       8.02      12.97       0.46
C       7.56      11.69       0.77
C       9.12      13.53       1.13
C       9.76      12.79       2.13
C       9.33      11.48       2.46
C       8.21      10.93       1.77
C       5.27      12.88      30.86
C       5.36      14.10      30.15
C       6.38      15.02      30.48
C       7.31      14.74      31.50
C       6.36      11.34      32.68
C      18.48      11.83      10.05
C      18.17      13.16      10.37
C      -7.48      13.59      11.36
C      -6.59      12.55      11.68
C      -5.61      12.74      12.68
C      -5.53      13.98      13.36
C      -6.44      15.01      13.04
C      -7.41      14.83      12.03
C      17.16      13.86       9.69
C      16.45      13.20       8.67
C      16.73      11.85       8.34
C      17.75      11.16       9.05
C      -5.75      10.86      10.05
C      -5.45       9.53      10.37
C      20.20       9.10      11.36
C      19.32      10.14      11.68
C      20.14       7.86      12.03
C      19.17       7.68      13.04
C      18.26       8.71      13.36
C      18.34       9.95      12.68
C      -5.02      11.53       9.05
C      -4.00      10.84       8.34
C      -3.72       9.49       8.67
C      -4.43       8.83       9.69
C      19.62      11.34      10.87
C      13.98       0.61      20.96
C      15.29       0.21      21.27
C       1.97      22.20      22.27
C       0.63      21.96      22.58
C       0.30      21.02      23.58
C       1.33      20.32      24.26
C       2.68      20.60      23.94
C       3.01      21.53      22.94
C      16.40       0.74      20.60
C      16.19       1.69      19.58
C      14.88       2.12      19.25
C      13.77       1.58      19.95
C      -1.26      22.08      20.96
C      -2.56      22.48      21.27
C      10.76       0.48      22.27
C      12.10       0.73      22.58
C       9.72       1.16      22.94
C      10.05       2.08      23.94
C      11.39       2.36      24.26
C      12.43       1.67      23.58
C      -1.04      21.11      19.95
C      -2.15      20.57      19.25
C      -3.46      21.00      19.58
C      -3.67      21.95      20.60
C      -0.26      22.82      21.77
C      11.13       5.58      26.12
C      10.48       5.67      28.43
C      10.19       7.04      28.32
C      10.86       6.98      26.00
C      10.99       7.69      24.82
C       9.61       7.84      29.43
C      11.53       4.73      24.97
C      12.25      10.10       4.31
C      12.65      10.62       6.62
C      13.99      10.19       6.51
C      13.59       9.63       4.20
C      14.15       9.16       3.01
C      14.97      10.28       7.62
C      11.31      10.18       3.16
C      15.60       6.87      15.22
C      15.85       6.26      17.53
C      14.81       5.32      17.42
C      14.53       5.94      15.10
C      13.84       5.70      13.92
C      14.40       4.43      18.53
C      16.14       7.64      14.07
C       1.60      17.10      26.12
C       2.25      17.02      28.43
C       2.54      15.64      28.32
C       1.87      15.71      26.00
C       1.74      15.00      24.82
C       3.12      14.85      29.43
C       1.20      17.96      24.97
C       0.48      12.59       4.31
C       0.08      12.07       6.62
C      -1.26      12.50       6.51
C      -0.86      13.06       4.20
C      -1.42      13.52       3.01
C      -2.24      12.41       7.62
C       1.42      12.50       3.16
C      -2.87      15.82      15.22
C      -3.12      16.42      17.53
C      -2.08      17.36      17.42
C      -1.80      16.75      15.10
C      -1.11      16.99      13.92
C      -1.67      18.26      18.53
C      -3.42      15.05      14.07
C      -6.98      17.90      29.86
C      -7.99      16.98      30.18
C      -8.79      17.51      31.17
C      -8.33      18.79      31.49
C      -8.98      19.55      32.49
C     -10.10      19.00       0.46
C      15.98      17.70       0.13
C      16.62      16.95      31.84
C      -8.08      15.75      29.50
C      -7.15      15.46      28.48
C      -6.13      16.38      28.15
C      -6.04      17.61      28.85
C      -7.29      20.37      29.86
C      -6.29      21.30      30.18
C      -5.48      20.77      31.17
C      -5.94      19.48      31.49
C      -4.38      21.33      31.84
C      -3.74      20.58       0.13
C      -4.17      19.27       0.46
C      -5.29      18.72      32.49
C      -8.23      20.67      28.86
C      -8.14      21.90      28.15
C      -7.12      22.82      28.48
C      -6.19      22.53      29.50
C      -7.14      19.14      30.68
C       4.98      19.62       8.05
C       4.67      20.95       8.37
C       5.54      21.39       9.36
C       6.42      20.34       9.68
C       7.40      20.53      10.68
C       7.49      21.77      11.36
C       6.57      22.80      11.04
C       5.61      22.62      10.03
C       3.66      21.65       7.69
C       2.95      20.99       6.67
C       3.23      19.65       6.34
C       4.25      18.95       7.05
C       7.27      18.65       8.05
C       7.57      17.32       8.37
C       6.70      16.89       9.36
C       5.82      17.93       9.68
C       6.64      15.65      10.03
C       5.67      15.47      11.04
C       4.76      16.50      11.36
C       4.84      17.74      10.68
C       8.00      19.32       7.05
C       9.02      18.63       6.34
C       9.30      17.29       6.67
C       8.59      16.63       7.69
C       6.12      19.14       8.87
C       0.48       8.41      18.96
C       1.79       8.00      19.27
C       1.73       7.04      20.27
C       0.39       6.79      20.58
C       0.06       5.85      21.58
C       1.09       5.16      22.26
C       2.44       5.43      21.94
C       2.77       6.36      20.94
C       2.90       8.53      18.60
C       2.69       9.48      17.58
C       1.38       9.91      17.25
C       0.27       9.37      17.95
C      -1.50       6.91      18.96
C      -2.80       7.31      19.27
C      -2.74       8.28      20.27
C      -1.40       8.52      20.58
C      -3.78       8.95      20.94
C      -3.45       9.88      21.94
C      -2.11      10.16      22.26
C      -1.07       9.46      21.58
C      -1.29       5.94      17.95
C      -2.39       5.40      17.25
C      22.81       5.83      17.58
C      22.60       6.78      18.60
C      -0.51       7.66      19.77
C      -2.37      13.38      24.12
C      -3.02      13.46      26.43
C      -3.31      14.84      26.32
C      -2.64      14.77      24.00
C      -2.51      15.49      22.82
C      -3.89      15.64      27.43
C      -1.97      12.52      22.97
C      -1.25      17.89       2.31
C      -0.85      18.41       4.62
C       0.49      17.98       4.51
C       0.09      17.43       2.20
C       0.65      16.96       1.01
C       1.47      18.08       5.62
C      -2.19      17.98       1.16
C       2.10      14.66      13.22
C       2.35      14.06      15.53
C       1.31      13.12      15.42
C       1.03      13.73      13.10
C       0.34      13.49      11.92
C       0.90      12.22      16.53
C       2.64      15.44      12.07
C       1.36       1.93      24.12
C       2.01       1.85      26.43
C       2.30       0.48      26.32
C       1.63       0.54      24.00
C     -11.76      22.79      22.82
C     -10.38      22.64      27.43
C       0.96       2.79      22.97
C      13.49      20.38       2.31
C      13.09      19.86       4.62
C      11.76      20.30       4.51
C      12.15      20.85       2.20
C      11.60      21.32       1.01
C      10.78      20.20       5.62
C      14.44      20.30       1.16
C      23.40       0.65      13.22
C      23.15       1.25      15.53
C      24.19       2.20      15.42
C      24.48       1.58      13.10
C      25.16       1.82      11.92
C      24.60       3.09      16.53
C       9.60      22.84      12.07
H       6.46      15.90      29.97
H       8.05      15.40      31.72
H       9.45      14.48       0.91
H      10.55      13.20       2.63
H       7.87      10.00       2.01
H       4.55      12.19      30.61
H       4.86      12.69       2.01
H       2.18       9.48       2.63
H       3.28       8.21       0.90
H       8.18      10.50      30.61
H       4.68       7.29      31.72
H       6.27       6.78      29.97
H       9.39      10.12       3.97
H       8.23       9.00      28.38
H       3.34      12.57       3.97
H       4.50      13.69      28.38
H      -2.99       8.98       8.16
H      -4.22       7.86       9.91
H      20.79       7.11      11.81
H      19.14       6.79      13.54
H      17.70      10.71      12.91
H      -5.25      12.49       8.80
H      -4.98      11.97      12.91
H      -6.41      15.90      13.54
H      -8.06      15.58      11.81
H      17.98      10.20       8.80
H      16.95      14.83       9.91
H      15.72      13.71       8.16
H      17.05       9.34      14.88
H      16.66      10.91       6.57
H      -4.32      13.35      14.88
H      -3.93      11.78       6.57
H      -4.26      20.63      19.07
H      -4.62      22.26      20.82
H       8.74       0.97      22.71
H       9.29       2.56      24.44
H      13.41       1.84      23.82
H      -0.09      20.83      19.70
H      -0.68      20.85      23.82
H       3.44      20.13      24.44
H       3.99      21.72      22.71
H      12.82       1.86      19.70
H      17.35       0.43      20.82
H      16.99       2.06      19.07
H      12.54       3.10      25.78
H      14.09       2.65      17.48
H       0.19      19.59      25.78
H      -1.37      20.04      17.48
H      10.33       5.16      29.30
H      11.71       7.41      24.20
H       9.61       7.25      30.35
H      10.24       8.72      29.61
H      12.48       5.07      24.57
H      10.77       4.86      24.19
H      12.28      11.00       7.49
H      13.54       8.69       2.39
H      14.45      10.58       8.54
H      15.42       9.30       7.80
H      11.13       9.18       2.76
H      11.81      10.77       2.38
H      16.37       6.39      18.40
H      13.73       6.46      13.30
H      14.92       4.72      19.45
H      13.33       4.53      18.71
H      15.36       8.30      13.67
H      16.40       6.92      13.29
H       2.40      17.53      29.30
H       1.02      15.28      24.20
H       3.12      15.44      30.35
H       2.49      13.96      29.61
H       0.25      17.61      24.57
H       1.96      17.82      24.19
H       0.45      11.69       7.50
H      -0.81      14.00       2.39
H      -1.72      12.10       8.54
H      -2.69      13.39       7.80
H       1.60      13.51       2.76
H       0.92      11.92       2.39
H      -3.64      16.30      18.40
H      -1.00      16.23      13.30
H      -2.19      17.97      19.45
H      -0.60      18.16      18.70
H      -2.63      14.39      13.67
H      -3.68      15.77      13.29
H       6.22       0.74      27.97
H       7.81       0.23      29.72
H      -4.05      22.27      31.62
H      -2.95      21.00       0.63
H      -5.63      17.79       0.01
H      -8.95      19.99      28.61
H      -8.64      20.48       0.01
H      15.19      17.28       0.63
H      16.30      16.00      31.62
H      -5.32      18.29      28.61
H      17.69      15.08      29.72
H      -7.23      14.58      27.97
H      -4.11      17.91       1.97
H      -5.27      16.79      26.38
H     -10.16      20.36       1.97
H      -9.00      21.49      26.38
H      10.02      16.78       6.16
H       8.79      15.65       7.91
H       7.29      14.90       9.81
H       5.64      14.58      11.54
H       4.20      18.51      10.91
H       7.76      20.29       6.80
H       8.04      19.77      10.91
H      19.87       0.73      11.54
H      18.21       0.41       9.81
H       4.48      17.99       6.80
H       3.45      22.63       7.91
H       2.22      21.50       6.16
H       3.55      17.13      12.88
H       3.16      18.70       4.57
H       8.70      21.15      12.88
H       9.09      19.58       4.57
H      22.01       5.46      17.07
H      21.65       7.09      18.82
H      -4.76       8.76      20.71
H      -4.21      10.36      22.44
H      -0.09       9.63      21.82
H      -0.33       5.66      17.70
H      -0.92       5.68      21.82
H       3.20       4.96      22.44
H       3.75       6.55      20.71
H      -0.68       9.65      17.70
H       3.85       8.23      18.82
H       3.49       9.85      17.07
H      -0.96      10.89      23.78
H       0.59      10.44      15.48
H      -0.06       4.42      23.78
H      -1.61       4.87      15.48
H      -3.17      12.95      27.30
H      -1.79      15.20      22.20
H      -3.89      15.04      28.35
H      -3.26      16.52      27.61
H      -1.02      12.87      22.57
H      -2.73      12.66      22.19
H      -1.22      18.80       5.49
H       0.04      16.48       0.39
H       0.95      18.38       6.54
H       1.92      17.10       5.80
H      -2.37      16.97       0.76
H      -1.69      18.57       0.38
H       2.87      14.18      16.40
H       0.23      14.26      11.30
H       1.42      12.51      17.45
H      -0.17      12.32      16.71
H       1.86      16.09      11.67
H       2.90      14.71      11.29
H       2.15       2.36      27.30
H       0.78       0.11      22.20
H       2.88       0.27      28.35
H     -11.01      21.76      27.61
H       0.00       2.44      22.57
H       1.72       2.66      22.19
H      13.46      19.48       5.50
H      12.21      21.80       0.39
H      11.29      19.90       6.54
H      10.33      21.18       5.80
H     -11.90      21.30       0.76
H      13.94      19.71       0.39
H      22.63       1.13      16.40
H      25.27       1.06      11.30
H      24.08       2.80      17.45
H      -0.84       2.99      16.70
H      10.38      22.19      11.67
H      22.60       0.60      11.29
N      10.00      10.80       3.51
N       8.23       8.24      29.08
N       2.73      11.88       3.51
N       4.50      14.44      29.08
N      17.34       8.46      14.41
N      16.01      11.28       7.27
N      -4.61      14.22      14.41
N      -3.28      11.41       7.27
N      11.64       3.28      25.32
N      14.75       3.03      18.18
N       1.08      19.41      25.32
N      -2.02      19.66      18.18
N      10.92       5.00      27.33
N      10.39       7.62      27.11
N      11.86      10.57       5.53
N      14.39       9.72       5.30
N      16.21       6.98      16.43
N      14.20       5.21      16.21
N       1.81      17.68      27.33
N       2.34      15.06      27.11
N       0.87      12.12       5.53
N      -1.66      12.97       5.30
N      -3.48      15.71      16.43
N      -1.47      17.48      16.21
N      -3.50      18.60       1.51
N      -5.27      16.04      27.08
N     -10.77      19.68       1.51
N      -9.00      22.24      27.08
N       3.84      16.26      12.41
N       2.51      19.08       5.27
N       8.41      22.02      12.41
N       9.74      19.20       5.27
N      -1.86      11.07      23.32
N       1.25      10.82      16.18
N       0.84       4.24      23.32
N      -2.26       4.49      16.18
N      -2.58      12.80      25.33
N      -3.11      15.42      25.11
N      -1.64      18.36       3.53
N       0.89      17.51       3.30
N       2.71      14.77      14.43
N       0.70      13.00      14.21
N       1.57       2.51      25.33
N     -11.16      22.86      25.11
N      13.89      19.91       3.53
N      11.36      20.76       3.30
N      22.79       0.54      14.43
N      24.80       2.31      14.21
O      10.74       8.89      24.81
O      15.31       8.78       3.00
O      12.93       4.89      13.90
O       1.98      13.80      24.81
O      -2.58      13.91       3.00
O      -0.20      17.80      13.90
O      -2.76      16.68      22.81
O       1.81      16.57       1.00
O      -0.57      12.68      11.90
O     -11.52      21.59      22.81
O      10.44      21.71       1.00
O      -0.44       2.64      11.90
