146

C       0.34      23.34      14.86
C       8.44      23.84      13.42
C       9.90      16.44       7.91
C       9.58      17.45      10.10
C       9.74      15.00       9.90
C       8.68      14.14       9.53
C       8.49      12.91      10.19
C       9.34      12.52      11.25
C       0.42      13.38      11.61
C       0.63      14.60      10.93
C       8.73      16.69       7.17
C       8.79      16.85       5.77
C       0.04      16.79       5.09
C       1.22      16.57       5.84
C       1.16      16.38       7.24
C       0.53      18.52      10.14
C       0.23      19.69      10.86
C       9.02      19.82      11.60
C       8.10      18.73      11.57
C       8.37      17.58      10.82
C       0.07       0.01      20.23
C       9.96      -1.32      18.17
C       0.06       1.13      18.05
C       1.21       1.95      18.15
C       1.35       3.09      17.35
C       0.36       3.45      16.40
C       9.20       2.61      16.28
C       9.04       1.49      17.11
C       1.17      -0.60      20.87
C       1.32      -0.52      22.27
C       0.40       0.19      23.07
C       9.29       0.83      22.42
C       9.12       0.72      21.02
C       8.94      -2.26      18.37
C       9.04      -3.55      17.81
C       0.17      -3.92      17.01
C       1.18      -2.95      16.81
C       1.10      -1.68      17.38
C       0.27      16.04       1.44
C       8.97      15.74       0.91
C       8.73      -0.50      27.76
C       9.76      -0.10      26.86
C       1.02       0.29      27.42
C       1.27      16.50       0.55
C       6.48      -1.24      28.12
C       6.71      15.03       1.26
C       5.11      15.68       2.83
C       0.59      15.87       2.89
C       9.51      -0.13      25.38
C       9.84       9.12      12.99
C       8.79       9.02      13.95
C       8.70       7.89      14.81
C       9.64       6.83      14.74
C       0.69       6.93      13.76
C       0.78       8.05      12.92
C       6.73       8.81      15.81
C       6.80       9.92      14.95
C       4.90      10.85      13.96
C       0.07      10.26      12.03
C       9.53       5.67      15.68
C       9.42      22.91      13.86
C       8.40      -7.46      13.96
C       9.33      -7.03      14.94
C       0.30      -7.98      15.39
C       6.49      -6.96      12.59
C       6.51      24.36      12.07
C       4.59      23.09      11.70
C       9.60      21.51      13.34
C       9.27      -5.63      15.47
H       1.06      22.70      15.21
H       7.93      17.02       5.25
H       7.83      16.75       7.64
H       2.03      16.23       7.76
H       2.13      16.55       5.38
H       8.01      14.42       8.81
H       7.69      12.34       9.92
H       1.40      18.46       9.61
H       0.90      20.47      10.81
H       7.21      18.80      12.07
H       7.68      16.83      10.80
H       1.38      15.22      11.24
H       1.02      13.15      12.41
H       0.58      17.85       3.49
H       8.15      10.96      11.74
H       7.75      21.01      12.63
H       2.14      -0.97      22.69
H       1.87      -1.10      20.32
H       8.32       1.19      20.58
H       8.63       1.39      22.95
H       1.95       1.70      18.80
H       2.20       3.65      17.44
H       8.13      -2.03      18.96
H       8.30      -4.24      18.02
H       2.01      -3.19      16.25
H       1.86      -1.01      17.25
H       8.21       0.90      17.00
H       8.48       2.81      15.58
H       1.48      -0.12      24.74
H       1.47       4.94      15.61
H       1.22      -5.40      16.14
H       5.57      -1.49      27.73
H       2.19      16.76       0.90
H       1.78       0.63      26.83
H       4.34      15.26       3.49
H       4.62      16.38       2.15
H       5.82      16.22       3.46
H       1.67      15.79       3.04
H       0.16      14.92       3.23
H       8.62       0.49      25.19
H       9.27      -1.16      25.11
H       5.97       8.72      16.50
H       1.55       8.08      12.24
H       1.38       6.19      13.65
H       4.19      11.67      14.09
H       4.33       9.91      14.00
H       5.36      10.95      12.97
H       0.13       9.86      11.02
H       1.05      10.69      12.27
H       8.53       5.26      15.55
H       9.61       6.05      16.70
H       5.78      -6.28      12.30
H       0.98      -7.74      16.12
H       3.89      22.83      10.90
H       4.02      23.59      12.49
H       5.02      22.16      12.09
H       9.49      20.82      14.19
H       0.65      21.44      13.00
H       8.27      -5.48      15.87
H       9.40      -4.95      14.62
N       9.86      16.30       9.32
N       0.05      16.99       3.69
N       9.05      11.36      12.04
N       8.70      21.05      12.25
N       9.91      -0.05      18.82
N       0.61       0.36      24.47
N       0.53       4.55      15.51
N       0.28      -5.25      16.52
N       7.49      -0.85      27.31
N       7.95      15.34       1.72
N       7.67       7.85      15.71
N       7.83       9.98      14.08
N       7.43      -6.61      13.51
N       7.49      23.52      12.50
O       5.74      14.60       2.12
O       5.87      10.92      15.01
O       5.60      23.95      11.15
