54

C      13.85       4.09       3.23
N      13.11       1.22       7.39
C      11.65       3.27       3.35
C       6.95       2.49       4.24
H       7.31       5.41       4.03
O      10.27       5.37       0.56
C       9.18       3.09       4.41
H       7.04       1.38       4.24
H       6.99       2.87       3.19
H       5.95       2.74       4.64
O      10.73       1.10       7.26
O      11.21       5.79       4.23
C       7.75       5.61       3.07
O       9.50       0.58       3.66
H      14.02       1.58       4.29
C      13.53       1.63       5.25
O      10.20       2.29       1.31
O      10.39       3.99       6.48
O      12.87       3.26       2.63
H      10.71       4.53       0.84
C       9.22       5.64       1.39
O       7.93       3.07       5.07
H      10.90       0.40       7.94
C      11.95       1.49       6.79
H      10.89       7.25       2.81
C       8.78       4.91       2.48
H      11.95       5.89       2.24
H      12.56       7.09       3.41
C      12.20       1.78       5.48
H       8.82       0.53       5.64
C      10.37       2.75       2.64
H      10.35      -0.40       5.26
H       8.75      -0.99       4.72
C      10.45       3.59       5.13
C      10.84       4.46       3.92
H      11.33       0.58       1.81
C       9.98       1.90       3.87
H      12.13       1.80       0.74
H      10.83       0.76       0.10
C       9.57       3.95       3.20
C      11.26       2.39       4.56
C      11.66       6.51       3.11
H      11.38       5.77       6.86
H      12.45       4.45       6.23
C       9.36      -0.08       4.89
H      11.84       4.37       7.89
C      11.17       1.32       1.00
N       7.51       6.68       2.31
H      13.69       4.29       4.31
H      13.94       5.04       2.67
H      14.83       3.59       3.11
N      14.10       1.29       6.40
N       8.49       6.75       1.33
C      11.57       4.67       6.86
