22

N       1.21       1.53      10.99
C       3.40       3.76      12.63
C       4.59       5.99      14.03
H       5.09       2.83      12.39
C       2.67       4.72      13.24
H       1.19       4.85      11.97
O       1.67       5.77      16.02
H       1.13       5.20      15.42
H       5.14       6.05      13.10
C       2.94       5.84      15.50
H       4.59       1.56       9.61
C       3.16       2.39      10.54
O       4.72       3.54      12.97
C       1.54       2.26      12.04
C       3.34       5.48      14.23
O       1.36       5.05      12.93
C       2.72       2.87      11.74
O       4.46       2.41      10.10
H       1.04       2.25      13.00
N       3.96       6.51      16.07
N       4.94       6.58      15.15
N       2.20       1.60      10.07
