33

N      20.86      17.35      25.62
N      20.08      16.65      26.55
C      22.29      18.78      23.55
C      22.86      19.49      22.46
C      22.38      19.33      21.17
C      21.32      18.45      20.90
C      20.74      17.76      21.95
C      21.19      17.91      23.28
C      20.49      17.18      24.34
C      20.35      17.02      27.79
C      19.55      16.46      28.92
C      18.41      17.42      29.34
C      17.62      16.85      30.53
C      16.43      17.72      30.93
C      15.64      17.11      32.10
O      22.84      18.97      24.74
O      19.49      16.40      24.05
O      21.26      17.92      28.05
H      23.68      20.17      22.69
H      22.83      19.91      20.36
H      20.93      18.33      19.89
H      19.92      17.08      21.76
H      19.13      15.49      28.66
H      20.23      16.32      29.77
H      18.84      18.40      29.60
H      17.74      17.58      28.49
H      18.30      16.72      31.39
H      17.28      15.84      30.27
H      16.79      18.73      31.21
H      15.77      17.86      30.06
H      15.19      16.15      31.81
H      16.28      16.93      32.97
H      14.82      17.77      32.42
