33

H      19.65       5.78       8.28
H      20.51       5.53       5.95
H      22.40       3.94       5.48
H      23.41       2.68       7.34
H      24.22       1.09      14.22
H      23.12       1.90      15.34
H      24.51       4.00      15.19
H      25.62       3.18      14.08
H      25.04       2.31      16.97
H      26.06       1.43      15.86
H      26.55       4.32      16.80
H      27.57       3.45      15.66
H      28.16       1.75      17.40
H      27.06       2.52      18.56
H      28.52       3.37      18.02
N      22.47       2.95      11.20
N      23.26       2.25      12.13
C      21.03       4.38       9.13
C      20.47       5.10       8.05
C      20.95       4.94       6.76
C      22.01       4.06       6.48
C      22.59       3.36       7.54
C      22.14       3.51       8.87
C      22.84       2.78       9.92
C      23.00       2.63      13.37
C      23.80       2.06      14.50
C      24.94       3.01      14.93
C      25.72       2.44      16.12
C      26.91       3.31      16.53
C      27.71       2.71      17.69
O      20.48       4.57      10.33
O      23.84       2.00       9.63
O      22.10       3.53      13.63
