26

N      27.43      16.88      27.09
N      33.73      16.85      20.31
H      27.57      14.82      26.98
H      28.71      14.82      24.75
H      28.51      19.14      24.83
H      27.36      18.95      27.03
H      29.34      17.99      22.81
H      29.07      16.25      22.62
H      32.09      16.75      19.04
H      30.40      16.72      20.85
H      33.67      16.99      23.68
H      35.22      16.99      21.75
H      31.29      17.49      24.37
C      27.80      15.75      26.46
C      28.43      15.76      25.22
C      28.70      16.99      24.59
C      28.31      18.16      25.26
C      27.68      18.06      26.50
C      29.46      17.02      23.30
H      31.06      15.79      24.10
C      32.40      16.79      20.08
C      31.46      16.78      21.11
C      31.89      16.83      22.44
C      33.27      16.92      22.67
C      34.14      16.93      21.59
C      30.95      16.78      23.61
