33

H      23.66       2.18      23.28
H      23.20       2.19      20.83
H      21.26       0.86      19.91
H      19.83      -0.41      21.47
H      18.85      -2.38      29.13
H      18.22      -3.23      27.71
H      19.59      -4.68      29.28
H      21.01      -3.69      28.91
H      19.40      -5.31      26.86
H      20.78      -4.32      26.46
H      20.82      -6.76      28.33
H      22.21      -5.74      28.01
H      22.05      -6.31      25.53
H      22.29      -7.77      26.52
H      20.68      -7.37      25.88
N      20.32      -0.83      25.39
N      19.51      -1.78      26.04
C      22.04       0.86      23.76
C      22.83       1.61      22.86
C      22.56       1.61      21.50
C      21.48       0.88      20.98
C      20.68       0.15      21.85
C      20.94       0.12      23.24
C      20.09      -0.73      24.07
C      19.81      -1.86      27.32
C      19.13      -2.87      28.19
C      20.07      -4.07      28.49
C      20.35      -4.94      27.26
C      21.28      -6.12      27.56
C      21.59      -6.94      26.31
O      22.38       0.89      25.05
O      19.13      -1.41      23.52
O      20.73      -1.10      27.85
