26

C       6.87      13.06       2.36
N       7.24      11.93       1.73
C       6.24      13.05       3.60
C       5.97      11.82       4.23
N       0.94      11.96       8.51
C       6.99      10.75       2.32
C       5.20      11.79       5.52
C       6.35      10.66       3.56
C       2.27      12.02       8.74
C       3.21      12.03       7.71
C       2.78      11.98       6.38
C       1.40      11.89       6.15
C       0.52      11.88       7.23
C       3.72      12.04       5.21
H       7.09      13.99       1.84
H       5.96      13.99       4.07
H       6.16       9.68       3.99
H       7.31       9.86       1.78
H       5.33      10.82       6.01
H       5.59      12.56       6.20
H       2.58      12.06       9.78
H       4.26      12.09       7.97
H       1.00      11.82       5.14
H      -0.55      11.82       7.07
H       3.38      11.32       4.44
H       3.61      13.02       4.72
