33

H      11.45      13.16      17.87
H      10.86      11.41      16.16
H      11.96      10.25      16.94
H      10.50      10.80      17.78
N      16.54      17.60      17.36
N      15.75      16.67      16.66
C      17.96      19.69      18.79
C      18.53      20.77      19.50
C      18.04      22.06      19.34
C      16.99      22.33      18.46
C      16.41      21.27      17.76
C      16.86      19.94      17.92
C      16.17      18.88      17.20
C      16.02      15.43      17.04
C      15.22      14.30      16.47
C      14.09      13.88      17.42
C      13.30      12.69      16.85
C      12.11      12.29      17.73
C      11.31      11.12      17.13
O      18.51      18.49      18.98
O      15.16      19.17      16.41
O      16.93      15.18      17.94
H      19.34      20.54      20.19
H      18.48      22.87      19.93
H      16.59      23.33      18.33
H      15.59      21.46      17.08
H      14.81      14.58      15.49
H      15.91      13.46      16.32
H      14.51      13.62      18.41
H      13.41      14.73      17.58
H      13.98      11.83      16.73
H      12.96      12.94      15.84
H      12.47      12.02      18.73
