26

N      11.58      12.67      11.93
H       6.92       4.63      12.04
H       8.60       6.44      12.09
N       5.28       5.90      11.95
H       7.72       9.97      11.33
H       7.95       9.68      13.02
H       5.33       9.27      11.82
H       3.78       7.33      11.81
C      11.21      12.04      13.06
C      10.58      10.80      13.05
C      10.31      10.18      11.82
C      10.69      10.85      10.66
C      11.33      12.08      10.75
C       9.54       8.89      11.78
C       6.60       5.67      12.01
C       7.54       6.70      12.03
C       7.11       8.03      11.97
C       5.73       8.25      11.88
C       4.86       7.18      11.87
C       8.05       9.20      12.04
H      11.44      12.55      13.99
H      10.31      10.32      13.99
H      10.50      10.42       9.67
H      11.65      12.62       9.86
H       9.66       8.39      10.81
H       9.93       8.20      12.55
