33

N      17.67       0.07      16.51
N      18.34       1.27      16.22
H      15.75      -4.43      17.35
H      13.64      -4.59      16.02
H      12.84      -2.62      14.71
H      14.23      -0.54      14.67
H      20.04       3.12      15.90
H      21.35       2.10      16.50
H      21.30       4.14      17.84
H      20.82       2.79      18.86
H      18.90       4.79      17.55
H      18.38       3.39      18.46
H      19.59       4.26      20.50
H      20.13       5.66      19.59
H      17.71       6.36      19.22
H      18.11       6.26      20.95
H      17.18       4.96      20.17
C      16.16      -2.40      16.78
C      15.39      -3.59      16.75
C      14.22      -3.67      16.01
C      13.77      -2.57      15.27
C      14.53      -1.41      15.25
C      15.73      -1.30      15.98
O      17.25      -2.39      17.56
C      16.51      -0.06      15.85
O      16.09       0.86      15.06
C      19.43       1.38      16.94
C      20.37       2.53      16.76
O      19.74       0.45      17.83
C      20.50       3.41      18.02
C      19.20       4.13      18.37
C      19.31       4.94      19.67
C      18.01       5.67      20.02
