33

C      26.64      23.54      24.44
C      27.20      22.45      23.72
C      26.72      21.16      23.88
C      25.67      20.89      24.77
C      25.09      21.94      25.46
C      25.54      23.27      25.31
C      24.83      24.33      26.03
C      24.68      27.78      26.19
C      23.87      28.90      26.75
C      22.74      29.34      25.80
C      21.95      30.52      26.37
C      20.76      30.93      25.50
C      19.97      32.09      26.10
H      28.02      22.68      23.04
H      27.16      20.35      23.30
H      25.27      19.88      24.90
O      27.19      24.73      24.25
H      23.46      28.63      27.73
H      24.55      29.75      26.91
O      25.58      28.04      25.29
H      24.27      21.75      26.15
O      23.83      24.04      26.81
H      23.16      29.59      24.82
H      22.06      28.49      25.64
H      22.63      31.38      26.50
H      21.61      30.27      27.38
H      21.12      31.20      24.49
H      20.10      30.06      25.36
H      19.51      31.80      27.06
H      20.61      32.96      26.29
H      19.15      32.42      25.44
N      25.20      25.61      25.87
N      24.41      26.54      26.57
