33

H      18.95      10.02       2.93
H      21.06       9.86       1.59
H      21.86      11.82       0.28
H      20.48      13.91       0.25
H      14.66      17.56       1.49
H      13.34      16.53       2.07
H      13.38      18.57       3.42
H      13.85      17.21       4.44
H      15.78      19.21       3.14
N      17.03      14.52       2.10
N      16.36      15.72       1.82
H      16.30      17.82       4.05
H      15.08      18.68       6.08
H      14.55      20.08       5.18
H      16.97      20.78       4.82
H      16.56      20.68       6.54
H      17.50      19.38       5.77
C      18.54      12.05       2.37
C      19.31      10.86       2.33
C      20.48      10.78       1.59
C      20.93      11.88       0.84
C      20.17      13.04       0.84
C      18.98      13.15       1.57
C      18.20      14.39       1.44
C      15.25      15.81       2.53
C      14.32      16.96       2.34
C      14.18      17.83       3.60
C      15.48      18.55       3.96
C      15.37      19.36       5.26
C      16.67      20.09       5.62
O      17.46      12.07       3.15
O      18.62      15.32       0.65
O      14.93      14.87       3.40
