33

H      20.04      25.90      24.40
H      17.93      27.22      24.25
H      17.12      28.52      26.23
H      18.51      28.54      28.31
H      24.34      27.32      31.95
H      25.65      26.72      30.93
H      25.61      25.38      32.97
H      25.14      24.36      31.62
H      23.21      25.67      33.62
H      22.69      24.75      32.23
H      23.90      22.72      33.10
H      24.44      23.63      34.49
H      22.02      23.99      35.19
H      22.42      22.27      35.09
H      21.49      23.04      33.79
O      21.54      25.66      26.44
O      20.37      28.15      29.72
O      24.06      25.40      29.27
C      20.45      26.45      26.44
C      19.69      26.48      25.25
C      18.51      27.22      25.18
C      18.06      27.96      26.28
C      18.82      27.96      27.44
C      20.02      27.23      27.54
C      20.80      27.37      28.78
C      23.74      26.28      30.20
C      24.67      26.46      31.36
C      24.81      25.20      32.24
C      23.50      24.84      32.96
C      23.62      23.54      33.77
C      22.31      23.19      34.50
N      21.97      26.71      28.91
N      22.64      26.99      30.11
