36

In      -2.18       9.94       4.47
In       0.51       7.49       4.03
In      -4.87       8.34       6.38
H      -4.42       8.45       3.83
H      -1.74       7.67       5.64
H      -7.12       9.63       5.42
H      -2.30      12.56       4.04
H      -3.38      11.88       2.89
H       0.40       5.81       1.99
H      -0.68       5.14       3.15
H      -5.00       7.41       8.86
H      -6.07       8.75       8.85
C      -3.29      10.80       7.43
C      -0.60       9.62       1.81
C      -5.99       5.35       5.64
C       0.04      12.15       4.91
C      -4.27      12.49       4.64
C       2.73       6.77       1.90
C      -1.57       6.36       1.74
C      -2.66       6.86       8.08
C      -6.96       6.92       8.50
N      -3.16      11.97       3.88
N      -0.47       5.96       2.57
N      -5.86       7.84       8.43
O      -2.35      10.57       6.60
O      -4.45      10.25       7.43
O      -4.15       9.11       4.52
O       0.34       9.01       2.42
O      -1.76       9.91       2.30
O      -1.47       7.94       4.73
O      -5.06       6.19       5.87
O       0.94       5.62       5.15
O      -6.84       8.71       5.64
O      -0.16      10.87       4.74
O       2.54       7.25       3.10
O      -2.85       7.65       7.06
