36

In       4.88      -1.35      10.42
In       2.19       1.10      10.85
In       7.57       0.25       8.51
H       5.00      -3.96      10.85
H       6.07      -3.29      12.00
H       2.30       2.78      12.90
H       3.38       3.45      11.74
H       7.70       1.18       6.03
H       8.77      -0.16       6.04
H       7.12       0.14      11.06
H       4.44       0.92       9.25
H       9.81      -1.04       9.47
C       2.66      -3.56       9.98
C       6.96      -3.90      10.25
C      -0.03       1.83      12.98
C       4.27       2.23      13.15
C       5.36       1.73       6.81
C       9.66       1.67       6.39
C       5.99      -2.21       7.46
C       3.30      -1.03      13.08
C       8.69       3.24       9.24
N       5.86      -3.38      11.01
N       3.16       2.63      12.32
N       8.56       0.75       6.46
O       2.86      -2.28      10.15
O       0.16       1.34      11.79
O       5.55       0.95       7.83
O       5.05      -1.98       8.29
O       7.15      -1.66       7.46
O       6.85      -0.52      10.37
O       2.36      -0.42      12.46
O       4.45      -1.32      12.59
O       4.17       0.65      10.16
O       7.76       2.41       9.02
O       1.76       2.97       9.74
O       9.54      -0.12       9.25
