15

H       3.77       4.63       6.96
H      -0.33       5.63       7.82
H       1.46       1.91       9.05
N       2.69       3.19       8.01
C       2.81       4.39       7.41
C       1.75       5.31       7.34
O      -1.92       3.98       9.00
C       0.52       4.96       7.90
C       0.40       3.73       8.55
C       1.51       2.88       8.58
C      -0.89       3.25       9.15
O      -0.84       2.12       9.76
C       1.95       6.62       6.65
O       3.15       6.87       6.26
O       0.93       7.36       6.50
