13

C       0.56      12.10      14.20
O       0.17      13.89      17.39
O       0.33      11.92      18.46
Zn      -1.08      14.15      15.76
Zn      -0.38      11.50      16.72
O      -1.04      16.01      15.30
C      -1.65      16.62      16.29
C      -3.09      11.96      16.12
C       0.50      13.20      18.41
O      -2.83      13.17      15.84
O      -2.23      11.07      16.45
O      -0.13      13.16      14.23
O       0.79      11.33      15.22
