26

H      14.51      11.83       4.18
H      11.09       9.68       3.33
C      11.07      13.38       2.14
C      11.19       9.97       6.71
C      12.71       7.94       1.06
C      14.68       7.90       5.78
C      15.28      10.44       1.64
C      13.03      13.25       7.20
O      12.95       9.12       0.52
O      13.04       7.72       2.31
O      13.86      11.20       4.57
O      15.23       9.00       6.23
O      15.19       9.56       2.60
O      13.65       7.95       4.97
O      14.35      11.35       1.50
O      13.37      12.05       7.60
O      12.52      13.45       6.00
O      11.87      10.28       3.23
O      12.00      12.77       1.43
O      10.84      11.02       5.99
O      11.08      13.29       3.47
O      12.42       9.51       6.67
Zn      13.54       9.33       3.61
Zn      14.23      10.71       6.44
Zn      12.01      11.88       4.60
Zn      12.26      10.80       1.34
