22

H      23.35      21.38      17.34
H      24.11      23.77      17.40
H      22.25      25.75      13.47
H      20.90      24.94      11.56
H      20.22      22.55      11.44
H      20.90      20.96      13.23
O      22.49      19.44      16.56
O      21.28      19.50      14.70
O      22.80      26.68      15.75
O      24.88      25.86      15.80
C      22.02      20.10      15.56
C      22.35      21.56      15.47
C      23.10      22.06      16.53
C      23.51      23.40      16.57
C      23.13      24.28      15.56
C      23.64      25.68      15.69
C      22.34      23.83      14.46
C      21.95      24.71      13.42
C      21.20      24.25      12.35
C      20.82      22.89      12.28
C      21.20      22.00      13.27
C      21.96      22.43      14.40
