138

Mg       3.76      -2.17      16.70
Mg       7.76       3.25      14.39
Mg       1.89       9.84       4.03
Mg      -2.11       4.41       6.34
Mg       5.92       0.42      15.54
Mg      -0.27       7.24       5.18
H      -1.94      -1.42      17.63
H       3.07       7.62      20.10
H      -0.26      -2.01      19.11
H       1.45       0.26      19.13
H       4.49       2.90      18.71
H       1.92       3.53       0.22
H      -1.49       8.77      12.52
H       5.80      -1.26      12.66
H      -1.45       8.82      10.22
H       5.35       8.48      13.46
H      -1.80       1.01      10.99
H       6.41       7.04      11.98
H       4.75       4.73      11.96
H       3.13       1.05      12.38
H       3.92       6.25      10.14
H      -4.25       5.03      18.57
H       7.49       1.03      18.43
H      -2.12       7.91       0.15
H       7.59       9.08       3.09
H       2.58       0.04       0.63
H       5.91       9.68       1.62
H       4.20       7.40       1.60
H       1.16       4.77       2.02
H       3.73       4.13      20.51
H       7.14      -1.10       8.21
H      -0.15       8.93       8.07
H       7.10      -1.15      10.51
H       0.30      -0.81       7.27
H       7.45       6.65       9.73
H      -0.76       0.63       8.75
H       0.90       2.93       8.77
H       2.52       6.62       8.34
H       1.73       1.42      10.58
H       9.90       2.64       2.16
H      -1.84       6.63       2.30
H       7.77      -0.24      20.58
C       6.48      -1.65      17.80
C       7.57      -2.13      18.75
C       8.93      -1.85      18.45
C       7.26      -2.75      19.92
C       7.13      10.44       0.15
C      -1.16      -2.18      19.33
C       3.58       0.62      17.61
C       3.04       1.45      18.75
C       1.91       1.05      19.41
C       1.40       1.79      20.52
C       3.71       2.62      19.17
C       2.39       4.32       0.49
C       3.76      -1.62      14.29
C       3.81      -1.54      12.80
C       2.62      -1.71      12.06
C       5.00      -1.38      12.15
C       5.07      -1.39      10.73
C      -0.64       8.91      10.70
C       8.07       0.50      13.29
C       8.84      -0.40      12.34
C       8.98      -1.78      12.64
C       9.35       0.08      11.17
C      -1.13      -0.77      10.21
C       6.31       7.96      11.76
C       5.04       2.60      13.48
C       4.08       2.87      12.34
C       4.13       4.07      11.68
C       3.28       4.33      10.57
C       3.17       1.88      11.92
C       3.32       5.57       9.87
C       7.23       3.09      16.80
C       7.17       3.01      18.29
C       6.97       4.20      19.03
C       7.37       1.83      18.93
C       7.39       1.77      20.36
C      -4.13       4.18      20.39
C      -0.83       9.32       2.92
C      -1.92       9.79       1.98
C      -3.28       9.51       2.28
C      -1.61      10.42       0.81
C      -1.48      -2.78      20.57
C       6.81       9.85       1.39
C       2.07       7.05       3.11
C       2.61       6.21       1.97
C       3.74       6.62       1.31
C       4.25       5.88       0.21
C       1.94       5.05       1.56
C       3.26       3.35      20.23
C       1.89       9.29       6.44
C       1.84       9.20       7.93
C       3.03       9.37       8.66
C       0.65       9.04       8.57
C       0.58       9.05      10.00
C       6.29      -1.24      10.03
C      -2.42       7.17       7.44
C      -3.19       8.07       8.38
C      -3.32       9.45       8.09
C      -3.70       7.58       9.55
C       6.78       8.44      10.51
C      -0.66      -0.29       8.97
C       0.61       5.07       7.25
C       1.57       4.79       8.39
C       1.52       3.60       9.05
C       2.37       3.34      10.16
C       2.48       5.79       8.81
C       2.33       2.10      10.86
C      -1.58       4.58       3.92
C      -1.52       4.65       2.44
C      -1.32       3.46       1.70
C      -1.72       5.84       1.79
C      -1.74       5.90       0.37
C       9.78       3.49       0.34
O       5.33      -2.09      17.99
O       6.85      -0.86      16.89
O       3.00      -0.47      17.39
O       4.59       1.06      17.00
O      -0.52       8.44      14.83
O       4.75      -1.23      15.00
O       8.14       1.73      13.10
O       7.41      -0.09      14.20
O       5.91       3.47      13.70
O       4.91       1.50      14.09
O      -3.65       4.20      16.26
O       7.15       2.03      16.09
O       0.32       9.76       2.74
O      -1.20       8.52       3.83
O       2.65       8.13       3.33
O       1.06       6.60       3.73
O       6.17      -0.77       5.90
O       0.90       8.90       5.73
O      -2.49       5.93       7.62
O      -1.76       7.75       6.53
O      -0.26       4.19       7.03
O       0.74       6.16       6.63
O       9.30       3.47       4.47
O      -1.50       5.64       4.64
