564

H      37.99      37.26      19.55
H      37.96      37.14      21.93
H       0.93       2.16      19.75
H      37.41      38.02      28.36
H      36.68      35.87      24.78
H      35.34      34.31      26.02
H      36.08      36.46      29.56
H       0.48       1.54      28.42
H       4.19       3.86      26.33
H       2.84       2.40      25.01
H       1.83       3.01      29.72
H       0.92       2.05      22.13
H      38.05       1.56      15.83
H      38.11       1.70      13.45
H       0.99      36.64      15.66
H      37.80       0.96       7.00
H      36.86       2.96      10.61
H      35.51       4.51       9.38
H      36.45       2.50       5.80
H       0.75      37.31       7.00
H       4.47      35.01       9.10
H       3.10      36.47      10.41
H       2.11      35.85       5.70
H       1.06      36.78      13.28
H      37.25      21.30      36.24
H      37.13      23.69      36.22
H       2.17      21.50      38.07
H      37.98      30.13      35.72
H      35.90      26.54      34.89
H      34.34      27.77      33.55
H      36.43      31.33      34.39
H       1.56      30.17      37.63
H       3.85      28.06       2.45
H       2.39      26.74       1.10
H       3.00      31.45       0.09
H       2.06      23.88      38.06
H       1.56      17.59      36.32
H       1.71      15.21      36.38
H      36.63      17.41      38.12
H       0.98       8.76      36.08
H       2.96      12.37      35.12
H       4.51      11.14      33.77
H       2.52       7.55      34.73
H      37.30       8.75      37.88
H      35.00      10.83       2.72
H      36.45      12.15       1.35
H      35.83       7.44       0.35
H      36.77      15.04      38.20
H      21.30      38.00      35.52
H      23.68      37.97      35.39
H      21.47       0.92       0.41
H      30.11      37.43      36.27
H      26.53      36.68      34.14
H      27.76      35.34      32.57
H      31.32      36.10      34.71
H      30.15       0.49      38.69
H      28.05       4.19       2.11
H      26.73       2.83       0.65
H      31.44       1.83       1.25
H      23.85       0.91       0.30
H      17.59      38.08      38.71
H      15.21      38.14      38.85
H      17.39       0.98      34.90
H       8.75      37.84      38.13
H      12.36      36.86       1.21
H      11.13      35.50       2.76
H       7.54      36.47       0.79
H       8.73       0.74      35.58
H      10.83       4.46      33.28
H      12.14       3.09      34.73
H       7.43       2.11      34.12
H      15.01       1.05      35.04
H      30.67      33.21      33.60
H      33.21      35.36      28.94
H      35.31      30.64      31.44
H       8.85       6.02      32.80
H       5.73       4.33      28.30
H       3.34       8.07      31.86
H      30.02       5.72       2.58
H      33.60       3.32       6.28
H      34.53       8.85       4.27
H       8.05      33.60       1.60
H       6.02      34.55       7.11
H       4.33      30.03       3.99
H      26.98      26.26       8.55
H      26.95      26.13      10.93
H      28.81      30.05       8.75
H      26.40      27.02      17.36
H      25.67      24.87      13.78
H      24.33      23.30      15.02
H      25.07      25.46      18.56
H      28.36      29.43      17.42
H      32.08      31.75      15.33
H      30.72      30.29      14.01
H      29.72      30.90      18.72
H      28.80      29.94      11.13
H      27.06      29.45       4.83
H      27.12      29.59       2.45
H      28.86      25.64       4.66
H      26.82      28.87      34.90
H      25.88      30.87      38.51
H      24.53      32.42      37.28
H      25.47      30.41      33.69
H      28.63      26.32      34.89
H      32.35      24.03      36.99
H      30.99      25.49      38.31
H      29.99      24.86      33.60
H      28.93      25.77       2.28
H      26.24      10.30      25.24
H      26.12      12.68      25.22
H      30.04      10.50      27.07
H      26.97      19.12      24.72
H      24.89      15.53      23.89
H      23.33      16.77      22.55
H      25.42      20.33      23.39
H      29.42      19.17      26.63
H      31.73      17.08      30.35
H      30.27      15.76      28.99
H      30.88      20.47      27.99
H      29.92      12.88      27.06
H      29.43       6.58      25.32
H      29.57       4.20      25.38
H      25.62       6.41      27.12
H      28.86      36.65      25.08
H      30.82       1.37      24.12
H      32.38       0.14      22.77
H      30.41      35.44      23.73
H      26.31      36.64      26.88
H      24.02      38.74      30.61
H      25.46       1.16      29.24
H      24.85      35.35      28.25
H      25.76       4.03      27.20
H      10.29      27.00      24.52
H      12.67      26.97      24.39
H      10.49      28.83      28.31
H      19.10      26.43      25.27
H      15.52      25.67      23.14
H      16.75      24.33      21.57
H      20.31      25.09      23.71
H      19.16      28.38      27.69
H      17.07      32.10      30.00
H      15.75      30.74      28.54
H      20.46      29.74      29.15
H      12.87      28.82      28.19
H       6.58      27.07      27.71
H       4.20      27.13      27.85
H       6.40      28.87      23.90
H      36.62      26.83      27.13
H       1.36      25.87      29.11
H       0.14      24.52      30.66
H      35.42      25.49      28.68
H      36.61      28.63      24.58
H      38.71      32.36      22.28
H       1.15      30.98      23.73
H      35.31      30.00      23.12
H       4.02      28.94      24.04
H      19.66      22.20      22.60
H      22.20      24.35      17.94
H      24.30      19.63      20.44
H      36.74      33.91      21.80
H      33.61      32.23      17.30
H      31.22      35.96      20.86
H      19.04      33.63      30.48
H      22.62      31.23      34.18
H      23.55      36.76      32.16
H      35.93      22.61      29.49
H      33.90      23.56      35.00
H      32.21      19.04      31.88
C      37.18      37.12      26.44
C      38.87       0.13      22.28
C       1.52       1.81      26.58
C       0.54       1.25      21.61
C       0.54       1.33      20.20
C       0.03       0.27      19.43
C      38.38      38.04      20.09
C      38.36      37.97      21.49
C      36.55      36.03      25.79
C      35.76      35.10      26.50
C      35.56      35.27      27.89
C      36.19      36.34      28.55
C      36.98      37.25      27.84
C       1.26       2.01      27.95
C       2.05       2.88      28.72
C       3.15       3.56      28.15
C       3.42       3.37      26.77
C       2.61       2.51      26.00
C       0.72       0.92      25.81
C      38.02      38.03      25.73
C      38.85       0.07      23.71
C      37.47       1.79       8.94
C       0.17      38.71      13.11
C       1.79      37.05       8.84
C       0.68      37.57      13.80
C       0.63      37.48      15.20
C       0.10      38.54      15.97
C      38.45       0.78      15.30
C      38.48       0.86      13.90
C      36.78       2.84       9.60
C      35.99       3.76       8.88
C      35.84       3.63       7.49
C      36.53       2.60       6.81
C      37.33       1.70       7.53
C       1.53      36.84       7.46
C       2.32      35.97       6.70
C       3.43      35.31       7.27
C       3.69      35.50       8.65
C       2.87      36.35       9.42
C       0.98      37.95       9.60
C      38.28       0.86       9.65
C       0.20      38.78      11.69
C      37.11      28.20      35.44
C       0.14      24.04      37.14
C       1.82      28.33      38.67
C       1.26      23.36      37.68
C       1.34      21.96      37.68
C       0.28      21.18      37.18
C      38.03      21.84      36.64
C      37.96      23.25      36.61
C      36.04      27.54      34.78
C      35.12      28.26      33.99
C      35.26      29.66      33.82
C      36.32      30.32      34.47
C      37.23      29.60      35.27
C       2.03      29.71      38.41
C       2.88      30.46       0.31
C       3.55      29.88       1.41
C       3.36      28.51       1.68
C       2.51      27.73       0.87
C       0.93      27.56      37.87
C      38.03      27.49      36.27
C       0.08      25.46      37.12
C       1.80      10.70      35.74
C      38.70      14.87      37.30
C      37.02      10.58       0.03
C      37.56      15.55      37.81
C      37.47      16.96      37.76
C      38.52      17.72      37.23
C       0.79      17.06      36.72
C       0.87      15.65      36.75
C       2.84      11.36      35.04
C       3.76      10.64      34.25
C       3.64       9.24      34.11
C       2.62       8.57      34.81
C       1.71       9.29      35.60
C      36.83       9.22      38.66
C      35.95       8.43       0.57
C      35.29       9.01       1.67
C      35.48      10.38       1.93
C      36.33      11.16       1.12
C      37.94      11.36      38.12
C       0.86      11.41      36.55
C      38.77      13.45      37.33
C      28.19      37.19      35.37
C      24.03      38.90      37.28
C      28.30       1.52       0.06
C      23.34       0.55      38.40
C      21.94       0.55      38.48
C      21.16       0.04      37.42
C      21.84      38.40      36.29
C      23.24      38.37      36.23
C      27.54      36.55      34.29
C      28.25      35.76      33.36
C      29.64      35.57      33.52
C      30.30      36.20      34.59
C      29.59      37.00      35.50
C      29.67       1.26       0.26
C      30.44       2.05       1.13
C      29.87       3.15       1.80
C      28.50       3.41       1.62
C      27.72       2.60       0.76
C      27.54       0.73      38.06
C      27.49      38.03      36.29
C      25.46      38.88      37.22
C      10.68      37.48       0.05
C      14.85       0.16      36.96
C      10.57       1.78      35.31
C      15.53       0.66      35.83
C      16.93       0.62      35.74
C      17.70       0.09      36.79
C      17.06      38.48      37.93
C      15.65      38.51      38.01
C      11.34      36.78       1.10
C      10.63      35.99       2.02
C       9.23      35.85       1.90
C       8.55      36.55       0.88
C       9.29      37.36      38.86
C       9.19       1.52      35.11
C       8.43       2.32      34.25
C       9.00       3.42      33.58
C      10.38       3.68      33.77
C      11.15       2.87      34.61
C      11.33       0.97      36.21
C      11.41      38.30      38.01
C      13.43       0.19      37.04
C      33.23      33.61      30.03
C      31.77      33.24      31.86
C      33.60      31.77      31.48
C      34.48      30.82      31.96
C      33.72      34.51      29.10
C      30.83      33.72      32.76
C       5.54       5.48      30.00
C       7.12       5.82      31.72
C       5.15       7.13      31.65
C       4.25       7.98      32.25
C       5.08       4.72      28.95
C       8.20       5.37      32.44
C      33.38       5.14       5.37
C      31.72       5.53       3.72
C      33.44       7.12       4.06
C      34.15       8.20       3.62
C      33.99       4.24       6.21
C      30.67       5.08       2.96
C       5.81      33.45       5.38
C       7.12      33.39       3.41
C       5.47      31.73       3.80
C       4.70      30.69       3.34
C       5.37      34.16       6.47
C       7.97      33.99       2.51
C      26.17      26.11      15.44
C      27.88      28.02      11.28
C      29.41      29.70      15.58
C      28.42      29.14      10.61
C      28.42      29.22       9.20
C      27.91      28.16       8.43
C      27.37      27.03       9.09
C      27.35      26.97      10.49
C      25.54      25.02      14.79
C      24.75      24.10      15.50
C      24.55      24.26      16.89
C      25.18      25.34      17.55
C      25.97      26.25      16.84
C      29.15      29.90      16.95
C      29.94      30.77      17.72
C      31.03      31.45      17.15
C      31.30      31.26      15.77
C      30.49      30.41      15.00
C      28.60      28.81      14.81
C      27.01      27.03      14.73
C      27.86      27.96      12.71
C      26.49      29.70      36.84
C      28.04      27.70       2.11
C      29.67      26.06      36.74
C      28.54      26.57       2.80
C      28.49      26.48       4.20
C      27.96      27.53       4.97
C      27.46      28.67       4.30
C      27.49      28.75       2.90
C      25.80      30.75      37.50
C      25.01      31.67      36.78
C      24.86      31.54      35.38
C      25.55      30.51      34.71
C      26.35      29.60      35.43
C      29.41      25.85      35.36
C      30.21      24.98      34.59
C      31.31      24.32      35.17
C      31.57      24.51      36.55
C      30.76      25.36      37.32
C      28.87      26.96      37.50
C      27.30      28.76      37.55
C      28.06      27.78       0.69
C      26.10      17.19      24.44
C      28.01      13.03      26.14
C      29.69      17.32      27.67
C      29.13      12.36      26.68
C      29.20      10.95      26.68
C      28.14      10.18      26.18
C      27.02      10.84      25.64
C      26.95      12.24      25.61
C      25.03      16.54      23.78
C      24.11      17.26      22.99
C      24.25      18.65      22.82
C      25.31      19.31      23.47
C      26.22      18.60      24.27
C      29.89      18.70      27.41
C      30.76      19.47      28.21
C      31.43      18.90      29.30
C      31.24      17.52      29.57
C      30.39      16.75      28.76
C      28.80      16.56      26.87
C      27.02      16.49      25.27
C      27.95      14.46      26.12
C      29.68      38.59      24.74
C      27.69       3.87      26.30
C      26.05      38.49      27.92
C      26.55       4.55      26.81
C      26.46       5.95      26.76
C      27.51       6.72      26.23
C      28.65       6.05      25.72
C      28.73       4.65      25.75
C      30.71       0.35      24.04
C      31.65      38.53      23.25
C      31.52      37.13      23.11
C      30.50      36.46      23.81
C      29.59      37.18      24.60
C      25.84      37.11      27.66
C      24.98      36.34      28.46
C      24.32      36.92      29.57
C      24.51      38.29      29.83
C      25.34       0.17      29.01
C      26.93       0.35      27.12
C      28.73       0.40      25.55
C      27.76       2.44      26.33
C      17.18      26.19      24.37
C      13.02      27.90      26.28
C      17.32      29.42      27.96
C      12.35      28.44      27.40
C      10.95      28.44      27.48
C      10.17      27.93      26.42
C      10.83      27.39      25.29
C      12.23      27.37      25.23
C      16.53      25.55      23.29
C      17.24      24.76      22.36
C      18.63      24.57      22.52
C      19.29      25.20      23.59
C      18.58      25.99      24.50
C      18.70      29.16      28.16
C      19.47      29.96      29.03
C      18.89      31.05      29.70
C      17.52      31.32      29.51
C      16.74      30.51      28.66
C      16.55      28.62      27.06
C      16.48      27.02      25.29
C      14.45      27.88      26.22
C      38.56      26.49      27.95
C       3.86      28.05      25.96
C      38.46      29.67      24.31
C       4.54      28.56      24.83
C       5.94      28.51      24.74
C       6.71      27.98      25.79
C       6.05      27.48      26.93
C       4.64      27.50      27.01
C       0.35      25.80      28.99
C      38.51      25.00      29.91
C      37.11      24.86      29.80
C      36.44      25.56      28.77
C      37.15      26.36      27.86
C      37.08      29.41      24.11
C      36.31      30.21      23.25
C      36.89      31.31      22.58
C      38.26      31.57      22.77
C       0.16      30.76      23.61
C       0.34      28.87      25.21
C       0.40      27.30      27.01
C       2.43      28.08      26.04
C      22.22      22.61      19.03
C      20.76      22.23      20.86
C      22.59      20.77      20.48
C      23.47      19.82      20.96
C      22.71      23.50      18.10
C      19.82      22.71      21.76
C      33.42      33.37      19.00
C      35.00      33.71      20.72
C      33.03      35.02      20.65
C      32.13      35.88      21.25
C      32.96      32.61      17.95
C      36.08      33.26      21.44
C      22.41      33.05      33.26
C      20.74      33.44      31.62
C      22.47      35.03      31.96
C      23.18      36.11      31.51
C      23.01      32.14      34.11
C      19.70      32.98      30.86
C      33.70      22.46      33.28
C      35.00      22.40      31.30
C      33.35      20.74      31.70
C      32.59      19.70      31.24
C      33.25      23.18      34.36
C      35.85      23.01      30.40
N      38.78       0.02      26.41
N      38.08      38.08      24.37
N       0.73       0.92      24.45
N       3.85       4.35      28.95
N      34.90      34.38      28.61
N       0.06       0.41      18.11
N       0.20      38.87       8.98
N      38.29       0.79      11.01
N       0.96      37.93      10.96
N       4.14      34.53       6.47
N      35.11       4.49       6.79
N       0.08      38.39      17.28
N       0.03      28.17      37.05
N      38.07      26.13      36.33
N       0.93      26.20      37.88
N       4.34      30.68       2.11
N      34.38      30.38      33.16
N       0.41      19.87      37.20
N      38.86      10.74      37.33
N       0.80      12.77      36.57
N      37.91      12.71      38.09
N      34.52       8.21       2.38
N       4.50       8.54      33.38
N      38.38      19.04      37.21
N      28.17      38.81      37.17
N      26.13      38.09      36.33
N      26.19       0.74      38.07
N      30.67       3.85       2.59
N      30.36      34.91      32.63
N      19.85       0.07      37.55
N      10.72       0.19      37.13
N      12.77      38.32      37.95
N      12.69       0.95      36.19
N       8.20       4.14      32.81
N       8.53      35.12       2.76
N      19.02       0.07      36.65
N      32.17      33.97      30.79
N      32.52      32.16      32.22
N      33.96      32.53      30.42
N       6.70       5.15      30.61
N       6.32       6.78      32.25
N       4.76       6.45      30.54
N      32.27       4.75       4.69
N      32.33       6.70       3.40
N      33.98       6.32       5.02
N       6.78      33.98       4.59
N       6.44      32.28       3.02
N       5.15      32.34       4.97
N      27.79      27.91      15.41
N      27.07      27.08      13.37
N      28.62      28.81      13.45
N      31.73      32.24      17.95
N      23.89      23.37      17.61
N      27.94      28.30       7.11
N      28.08      27.88      36.88
N      27.30      28.68       0.01
N      28.84      26.94      38.85
N      32.02      23.54      34.37
N      24.14      32.40      34.68
N      27.94      27.39       6.28
N      27.90      17.16      26.05
N      27.06      15.13      25.33
N      28.80      15.20      26.88
N      32.22      19.69      30.01
N      23.37      19.38      22.16
N      28.28       8.86      26.20
N      27.86      38.63      26.33
N      28.66       1.76      25.57
N      26.90       1.71      27.09
N      23.54      36.11      30.28
N      32.38      36.43      22.38
N      27.37       8.04      26.21
N      17.16      27.80      26.17
N      15.12      27.08      25.33
N      15.19      28.63      27.07
N      19.69      31.75      30.49
N      19.35      23.90      21.63
N       8.85      27.96      26.55
N      38.60      28.08      26.13
N       1.76      27.32      26.95
N       1.70      28.84      25.19
N      36.08      32.03      21.81
N      36.41      24.14      30.66
N       8.03      27.96      25.65
N      21.16      22.97      19.79
N      21.51      21.16      21.22
N      22.95      21.53      19.42
N      34.59      33.04      19.61
N      34.20      34.67      21.25
N      32.64      34.34      19.54
N      21.30      32.66      32.58
N      21.35      34.61      31.30
N      23.00      34.22      32.92
N      34.66      23.00      32.48
N      34.32      21.30      30.92
N      33.03      21.35      32.86
