26

Ca       2.79       8.01      18.54
Ca       9.85       9.23      20.37
O      -2.63      10.50      19.52
Cd      -0.78       8.95      19.05
Cd       6.27       8.31      19.88
C       0.77       8.13      21.34
C      -2.40       6.55      19.32
O       8.43       9.35      18.70
O       4.42       6.76      19.42
O       6.21       7.62      22.21
O      -0.38       8.67      21.36
O      11.13       7.51      19.96
C       7.81       9.13      17.59
O       8.24       8.26      21.55
C       0.39       9.54      16.50
C       4.61      10.70      19.61
O       4.01       9.75      19.00
O      -0.84       9.69      16.74
O      -1.30       6.71      18.71
O       1.39       7.92      20.23
O       1.18       8.95      17.35
C      -1.87      11.55      19.39
O       6.67       8.58      17.57
C       7.45       7.72      22.42
O       5.72      10.54      20.22
C       5.17       5.70      19.56
