26

Ca       6.45       1.42       8.87
O       2.27      -0.46       8.98
O       4.74       2.08       7.61
Ca      -0.60       2.14      10.58
O       4.97       1.11      10.49
Cd       9.85       1.74      10.26
Cd       2.79       1.79       9.20
C      10.99       0.97      12.73
C       1.15      -0.64       9.56
O      12.03       2.48       8.98
O       9.74       1.03      12.57
O       0.49       0.32      10.09
O       1.09       3.33       9.71
O       3.09       1.62      11.57
O      10.15       1.94       7.90
C       3.93       2.56       6.72
O       9.30       3.97      10.48
C       8.20       4.18       9.88
C       8.75      -0.93       9.90
C       4.29       1.22      11.58
O       2.68       2.53       6.89
C       1.71       4.48       9.56
O       8.13       0.22       9.74
O       7.54       3.24       9.31
O      11.80       1.41      11.81
C      11.34       2.35       7.89
