26

O      11.07      12.09       7.89
O       9.19      12.60       8.97
Ca       7.72      12.29      10.59
Ca      14.76      11.57       8.88
O      11.89      14.17      10.48
O      13.07      10.37       9.75
O      18.52      12.68       6.89
Cd      11.37      11.92      10.27
Cd       4.32      11.96       9.20
O       4.86       9.74       8.98
C      10.23      11.15      12.75
C      13.01      14.35       9.90
C       5.42      14.64       9.56
C      17.28      12.74       6.73
C      12.45       9.22       9.90
C       5.96       9.53       9.58
O       9.42      11.63      11.86
O      16.47      12.30       7.65
O       6.63      10.47      10.15
O       6.03      13.49       9.72
O      13.68      13.39       9.37
C      16.92      11.35      11.57
C       9.88      12.49       7.88
O      16.24      11.23      10.48
O      18.12      11.77      11.56
O      11.48      11.18      12.57
