13

N      15.25      18.40      23.75
N      15.83      21.46      23.06
N      16.26      20.54      26.14
N      18.33      19.50      23.83
C      14.99      17.22      24.43
C      14.57      18.30      22.58
C      14.56      22.01      23.01
C      15.98      21.82      26.57
Zn      16.42      19.95      24.24
C      18.76      18.63      22.84
C      16.41      19.80      27.26
C      19.45      20.00      24.39
C      16.54      22.11      22.12
