13

C       9.73       6.36      16.52
C       4.88       4.67      18.30
C       5.30       3.60      16.45
C       6.86       8.49      18.76
C       4.86       8.40      17.89
C       6.32       8.20      14.33
Zn       6.72       6.33      16.66
C       6.75       6.18      13.64
N       5.55       4.77      17.14
N       6.13       7.84      17.83
N       6.59       6.91      14.76
N       8.62       5.86      17.08
C       9.05       4.99      18.07
