13

Zn       2.99       7.30       3.02
N       3.61       5.81       4.22
N       3.24       6.74       1.12
N       1.09       7.77       3.44
N       4.17       8.84       3.51
C       2.88       5.11       5.12
C       4.91       5.34       4.36
C       4.12       5.75       0.69
C       2.75       7.30      -0.00
C       0.66       8.64       4.43
C      -0.03       7.28       2.87
C       4.43      10.02       2.83
C       4.84       8.94       4.68
