13

N       5.53      10.13      22.47
N       6.13       9.43      19.41
N       6.61      12.51      20.33
N       8.61      10.16      21.40
C       5.29      10.80      23.65
C       4.86       9.38      18.86
C       6.76      13.63      21.06
C       6.86       8.49      18.76
C       6.32      12.94      19.04
C       9.73      10.73      20.91
C       9.04       9.15      22.25
Zn       6.72      10.61      20.93
C       4.85       8.97      22.57
