13

C       2.78      22.14       5.11
Zn       2.94      19.95       3.02
N       4.13      18.42       3.52
N       3.52      21.45       4.22
N       3.21      20.52       1.12
N       1.04      19.40       3.33
C       4.40      17.24       2.83
C       4.80      18.31       4.68
C       4.81      21.93       4.36
C       2.72      19.95      -0.00
C       0.61      18.23       3.95
C      -0.08      20.06       2.97
C       4.09      21.50       0.69
