13

C      14.61       8.95      22.58
N      13.93      10.12      22.48
N      13.35       9.43      19.42
N      12.86      12.51      20.37
N      10.85      10.15      21.40
C      14.19      10.80      23.66
C      12.63       8.51      18.75
Zn      12.74      10.60      20.94
C      14.64       9.33      18.92
C      13.13      12.94      19.08
C      12.70      13.63      21.10
C      10.41       9.15      22.25
C       9.73      10.73      20.91
