13

C      13.14      14.32       8.20
C      10.36      18.05       4.99
C      12.72      13.63       6.17
C       9.68      16.49       6.35
N      13.87      17.13       4.78
N      13.26      17.83       7.84
N      12.87      14.75       6.91
N      10.80      17.06       5.85
C      14.54      18.29       4.67
Zn      12.69      16.65       6.33
C      14.12      16.44       3.60
C      12.53      18.76       8.49
C      14.53      17.89       8.41
