13

C      14.57      18.30      22.58
C      13.12      14.31      19.08
C      10.39      18.10      22.26
C      12.56      18.76      18.78
Zn      12.71      16.65      20.94
C       9.70      16.52      20.92
C      12.70      13.63      21.10
C      14.55      17.88      18.85
C      14.16      16.45      23.65
N      13.90      17.13      22.48
N      13.29      17.83      19.42
N      12.85      14.75      20.37
N      10.82      17.09      21.41
