13

Zn       2.94      24.23      19.96
C       2.85      22.13      22.15
N       4.14      23.75      18.42
N       3.56      23.06      21.47
N       3.07      26.13      20.55
N       1.05      23.79      19.49
C       4.38      24.42      17.23
C       4.83      22.60      18.33
C       4.85      22.97      21.96
C       3.35      26.57      21.83
C       0.62      22.78      18.64
C       2.91      27.25      19.82
C      -0.07      24.36      19.98
