13

C      15.02      10.02      24.43
C      14.61       8.95      22.58
C      16.63       5.13      22.13
C      14.64       5.22      23.01
Zn      16.47       7.31      24.23
C      16.08       5.44      26.57
C      16.50       7.46      27.26
C      18.80       8.64      22.83
C      19.48       7.27      24.39
N      15.28       8.85      23.74
N      15.90       5.78      23.06
N      16.34       6.72      26.14
N      18.36       7.78      23.82
