13

C       4.84       8.94       4.68
C       6.91      13.62       6.34
C       9.71      10.64       6.46
C       9.02       9.68       4.62
Zn       6.69      10.61       6.33
C       5.52      12.94       7.88
C       5.25      10.80       3.62
C       6.85       8.51       8.52
C       4.82       9.31       8.36
N       5.51      10.11       4.79
N       6.11       9.41       7.84
N       6.41      12.50       6.91
N       8.59      10.29       5.79
