16

O      -1.07       3.63       9.90
O      -0.50       5.62      10.77
C      -6.29       3.91      10.33
C      -5.11       4.57      10.95
C      -5.30       5.57      11.91
C      -4.21       6.22      12.48
C      -2.92       5.92      12.04
C      -2.72       4.91      11.09
C      -3.81       4.20      10.57
H      -2.06       6.45      12.42
C      -1.34       4.70      10.56
H      -3.65       3.41       9.84
H      -6.31       5.82      12.22
H      -4.37       6.99      13.24
O      -7.42       4.53      10.31
O      -6.18       2.74       9.81
