16

O      -0.98       6.54       1.67
O       0.21       4.82       2.58
C       0.81       6.22       7.48
C       0.54       6.91       6.19
C       0.29       6.16       5.03
C      -0.04       6.80       3.83
C      -0.08       8.20       3.78
C       0.21       8.96       4.92
C       0.52       8.32       6.12
H       0.33       5.07       5.09
H      -0.34       8.69       2.85
H       0.18      10.04       4.87
H       0.74       8.88       7.02
C      -0.29       5.99       2.61
O       0.76       4.94       7.49
O       1.05       6.95       8.50
