16

C      -0.69      -3.22      10.10
C       0.40      -2.52      10.62
C      -2.07      -3.01      10.62
H       2.90      -4.14       8.96
H       0.96      -5.30       7.95
H      -1.35      -4.77       8.76
H       0.24      -1.73      11.35
O      -2.91      -3.94      10.41
O       4.02      -2.84      10.87
O       2.77      -1.06      11.37
O      -2.34      -1.95      11.29
C       2.88      -2.22      10.85
C       1.71      -2.88      10.24
C       1.90      -3.89       9.28
C       0.80      -4.54       8.71
C      -0.48      -4.23       9.14
