9

Ga      -2.86       6.26       1.96
O      -2.84       8.08       1.52
P      -2.90       4.96      -0.66
P      -0.76       6.91       4.16
P      -5.26       6.48       3.91
O      -2.35       4.86       0.83
P      -1.61       8.59       0.62
O      -1.65       5.89       3.36
O      -4.61       5.90       2.58
