9

Ga       6.13       8.70       4.44
O       4.37       8.36       3.82
P       6.10      11.62       4.64
P       8.22       6.48       3.91
P       3.73       6.91       3.65
O       6.18       8.17       6.24
P       7.40       8.70       7.14
O       6.66      10.38       3.80
O       7.33       7.67       3.42
