9

Ga      -1.60      -1.92       7.34
P      -2.90      -1.91       4.64
O      -2.16      -3.59       7.98
O      -2.80      -0.87       8.35
P      -1.60      -4.83       7.14
P      -3.69       0.31       7.83
P       0.80      -0.16       8.09
O      -1.68      -1.40       5.55
O       0.15      -1.60       7.97
