9

O       2.81       2.67       7.75
Ga       2.88       1.37       6.40
O       4.65       0.69       6.35
P       1.59       3.72       7.76
P       5.30      -0.14       7.54
P       2.89       3.00       3.98
P       0.80      -0.16       8.09
O       2.33       1.66       4.63
O       1.68      -0.03       6.80
