19

Ga       5.58       4.55       4.84
N       6.13       3.25       3.30
N       6.51       3.12       6.06
N       5.25       5.50       6.66
P       8.22       6.48       3.91
P       3.73       6.91       3.65
P       2.89       3.00       3.98
O       7.44       5.37       4.61
O       4.87       5.87       3.61
O       3.88       3.54       5.07
H       5.24       3.03       2.79
H       6.79       3.74       2.70
H       5.79       2.44       6.37
H       5.67       6.44       6.63
H       4.24       5.59       6.80
C       6.74       2.05       3.90
C       7.47       2.41       5.20
C       7.01       3.86       7.24
C       5.84       4.69       7.77
