16

C       7.03      11.49       4.26
C       8.33      10.12       7.56
C       7.06      10.93       5.54
O       6.96      12.66       1.73
C       8.28      10.74       6.21
C       9.47      11.13       5.56
C       9.44      11.69       4.28
C       8.22      11.88       3.61
C       8.18      12.49       2.25
H       6.07      11.62       3.78
H       6.13      10.64       6.00
O       9.52       9.95       8.09
H      10.44      11.00       6.04
O       7.18       9.79       8.13
H      10.38      11.98       3.82
O       9.35      12.81       1.69
