31

H       1.12      13.74      10.14
H       1.06      16.93      13.62
H       1.11      15.80      11.47
H       0.90      11.37      13.68
H       0.79      13.49      19.39
H       0.87      11.31      15.74
H       0.99      16.89      16.02
H       0.75      11.13      19.46
H      -0.13      10.41      18.07
H       1.67      10.37      18.12
C       1.05      11.20      11.07
C       1.06      14.84      11.98
C       1.00      12.43      11.86
C       0.83      13.49      18.31
C       0.83      12.28      17.62
C       0.88      12.28      16.22
C       0.92      13.49      15.48
C       0.94      14.72      16.20
C       0.96      13.52      14.05
C       1.01      14.78      13.38
C       1.02      15.97      14.12
C       0.98      15.94      15.50
C       0.94      12.35      13.25
C       1.06      13.67      11.22
C       0.89      14.70      17.62
C       0.84      15.94      18.39
C       0.78      10.98      18.36
O      -0.12      10.63      10.81
O       2.27      10.78      10.76
O      -0.37      16.37      18.71
O       2.00      16.52      18.65
