16

Cu      13.55      16.71      10.30
Cu      11.61      18.12      12.70
O      14.31      17.43       8.54
O      12.05      19.07      14.46
C      12.50      15.63      14.08
C      10.91      16.78       8.91
C      11.32      20.08      14.09
C      15.49      17.05       8.91
N      13.31      15.86      12.04
N      10.88      17.63      10.95
C       9.61      17.72      10.51
N      12.53      16.43      13.00
N      11.65      17.07      10.00
C      13.79      14.69      12.48
O      10.79      19.99      12.91
O      15.57      16.52      10.09
