48

C      -5.39      11.76       6.90
O      -0.62       2.02       6.29
O      -2.06       2.41       7.89
O      -7.74      13.23       6.85
H       0.63       4.24       5.75
H       0.84       6.49       5.41
H      -2.25       7.16       7.88
H      -2.53       4.87       8.14
H      -2.65       8.83       6.54
H      -4.01      10.45       7.57
H      -6.03      11.55       7.54
O       6.16      13.77       5.60
O       5.10      14.81       4.00
O      -7.11      14.33       5.04
C       5.15      13.89       4.85
C       3.99      12.93       4.96
C       4.06      11.80       5.74
C       2.95      11.01       5.93
C       1.71      11.32       5.31
C       1.68      12.41       4.47
H       3.01      10.26       6.48
C       0.48      10.59       5.64
C      -0.73      11.22       5.61
H       0.90      12.60       4.01
C       2.79      13.24       4.30
H       4.87      11.57       6.14
H       2.74      13.99       3.75
H      -0.76      12.12       5.34
C      -3.47      12.31       4.98
H      -2.84      12.48       4.31
C      -4.66      13.02       4.99
H      -4.80      13.69       4.35
H       1.30       8.74       5.94
C       0.49       9.21       5.94
C      -1.92      10.60       5.94
C      -3.22      11.35       5.94
C      -5.64      12.75       5.94
C      -6.94      13.50       5.94
C      -1.23       2.83       7.04
C      -0.99       4.32       6.93
C       0.03       4.82       6.15
C       0.16       6.17       5.96
C      -0.73       7.10       6.58
C      -1.69       6.58       7.42
C      -1.85       5.20       7.59
C      -0.71       8.53       6.25
C      -1.87       9.26       6.28
C      -4.18      11.09       6.91
