48

C       1.83       2.48       3.07
C       3.25       3.01       2.96
O       1.44       1.55       2.33
C       4.19       2.39       2.18
C       5.43       2.95       1.99
O       1.06       2.99       3.92
C       3.58       4.20       3.63
C       4.85       4.75       3.46
C       5.78       4.18       2.62
C       7.03       4.88       2.29
C       7.08       6.25       2.32
O      15.00       1.55       1.64
O      15.38       2.99       0.04
C       7.51       9.16       2.95
C       7.49      10.54       2.94
O       8.85      13.32       1.07
H       3.99       1.57       1.78
H       6.04       2.52       1.44
H       5.08       5.53       3.92
H       2.95       4.62       4.18
H       6.33       6.71       2.58
H       7.05       8.70       3.61
H       6.99      11.00       3.58
C      14.60       2.48       0.89
C      13.19       3.01       1.00
C      12.25       2.39       1.78
C      11.01       2.95       1.97
C      10.66       4.18       1.35
C      11.59       4.75       0.51
C      12.86       4.20       0.34
C       9.41       4.88       1.67
C       9.35       6.25       1.64
C       8.93       9.16       1.01
H      12.45       1.57       2.18
H      10.40       2.52       2.52
H      11.36       5.53       0.04
H      13.49       4.62      -0.21
H      10.11       6.71       1.38
C       8.95      10.54       1.02
H       9.39       8.70       0.35
H       9.45      11.00       0.39
O       7.59      13.32       2.89
H       8.22       3.25       1.98
C       8.22       4.18       1.98
C       8.22       6.96       1.98
C       8.22       8.46       1.98
C       8.22      11.25       1.98
C       8.22      12.75       1.98
