48

C      13.86       1.49      17.83
C      15.16       0.74      17.83
O       8.84      12.22      18.18
O      10.28      11.82      19.78
O      15.96       1.00      18.74
O       2.06       0.47      17.49
O       3.12      -0.58      15.89
O      15.33      -0.09      16.92
C       9.45      11.41      18.92
C       9.21       9.92      18.82
C       8.19       9.42      18.04
C       8.06       8.06      17.85
C       8.95       7.14      18.47
C       9.91       7.66      19.31
C      10.07       9.04      19.48
C       8.93       5.71      18.14
C      10.09       4.98      18.17
C      12.40       3.15      18.80
C      13.61       2.48      18.79
C       3.07       0.35      16.74
C       4.23       1.30      16.85
C       4.16       2.43      17.63
C       5.27       3.22      17.82
C       6.51       2.92      17.20
C       6.54       1.83      16.36
C       5.43       1.00      16.19
C       7.74       3.65      17.53
C       8.95       3.01      17.49
C      11.69       1.92      16.86
C      12.88       1.21      16.87
H      10.87       5.40      18.43
H      12.23       3.78      19.46
H      14.25       2.68      19.43
H       3.35       2.67      18.03
H       5.20       3.97      18.37
H       7.32       1.63      15.89
H       5.48       0.24      15.64
H       8.98       2.12      17.23
H      11.06       1.75      16.20
H      13.02       0.55      16.24
H       7.59      10.00      17.64
H       7.38       7.74      17.30
H      10.47       7.08      19.77
H      10.75       9.37      20.03
H       6.92       5.50      17.83
C       7.73       5.03      17.83
C      10.14       3.64      17.83
C      11.44       2.89      17.83
