48

C      13.37       0.35      11.00
C      12.21       1.30      10.89
C      12.28       2.43      10.11
C      11.17       3.22       9.92
C       9.93       2.92      10.54
C       9.90       1.83      11.38
C      11.01       1.00      11.55
C       8.70       3.65      10.21
C       7.49       3.01      10.25
C       4.75       1.92      10.88
O      14.38       0.47      10.25
O      13.32      -0.58      11.85
C       3.56       1.21      10.87
O       1.11      -0.09      10.82
O       7.60      12.22       9.56
H      13.08       2.67       9.71
H      11.23       3.97       9.37
H       9.11       1.63      11.85
H      10.96       0.24      12.10
H       7.46       2.12      10.51
H       5.38       1.75      11.54
H       3.42       0.55      11.50
O       0.48       1.00       9.00
O       6.16      11.82       7.96
C       6.99      11.41       8.81
C       7.23       9.92       8.92
C       8.25       9.42       9.70
C       8.38       8.06       9.89
C       7.49       7.14       9.27
C       6.53       7.66       8.43
H       8.85      10.00      10.10
C       6.37       9.04       8.26
H       9.06       7.74      10.44
C       6.35       4.98       9.57
C       4.04       3.15       8.94
H       5.57       5.40       9.31
H       5.97       7.08       7.97
C       2.83       2.48       8.95
H       4.21       3.78       8.28
C       7.51       5.71       9.60
H       2.18       2.68       8.31
H       5.69       9.37       7.71
H       9.52       5.50       9.91
C       8.71       5.03       9.91
C       6.30       3.64       9.91
C       5.00       2.89       9.91
C       2.58       1.49       9.91
C       1.28       0.74       9.91
