17

H      13.58      12.49       4.59
H      17.37      14.73       4.83
H      18.11      14.73       2.64
H      14.84      12.67       1.56
O      16.06      13.97       6.88
O      18.22      14.06       0.23
O      16.41      12.99      -0.40
C      15.29      13.62       5.98
O      14.12      13.21       6.20
C      15.70      13.66       4.54
O      13.73      12.48       3.78
C      16.87      14.30       4.18
C      17.31      14.30       2.86
C      16.56      13.68       1.89
C      15.36      13.07       2.22
C      14.92      13.07       3.54
C      17.08      13.59       0.49
