17

O       8.65       3.33      12.17
O       8.44      -2.58      15.79
O       6.23      -2.42      15.96
C       7.53       2.90      12.49
O       6.43       3.45      12.22
C       7.46       1.60      13.27
O       5.06       1.56      13.20
C       8.63       1.00      13.70
C       8.59      -0.18      14.41
C       7.37      -0.77      14.72
C       6.21      -0.18      14.29
C       6.24       1.00      13.56
C       7.34      -2.03      15.55
H       5.20       2.27      12.82
H       9.45       1.39      13.50
H       9.38      -0.58      14.70
H       5.39      -0.58      14.48
