17

C       6.20      13.76       5.98
C       6.62      13.71       4.54
O       4.65      14.90       3.78
C       7.79      13.08       4.18
O       5.04      14.17       6.20
C       6.28      14.30       2.22
C       5.83      14.31       3.54
C       8.23      13.07       2.86
C       7.48      13.70       1.89
C       7.99      13.79       0.49
O       6.98      13.40       6.88
H       5.76      14.71       1.56
H       4.50      14.89       4.59
H       8.29      12.65       4.83
H       9.03      12.65       2.64
O       9.13      13.32       0.23
O       7.33      14.38      -0.40
