17

H      14.28       6.86      12.82
O      17.73       5.80      12.17
H      18.54       7.74      13.50
H      18.46       9.70      14.70
H      14.47       9.70      14.48
O      17.52      11.71      15.79
O      15.31      11.55      15.96
O      15.52       5.68      12.22
O      14.15       7.57      13.20
C      16.61       6.23      12.49
C      16.54       7.52      13.27
C      17.72       8.13      13.70
C      17.67       9.31      14.41
C      16.45       9.90      14.72
C      15.29       9.31      14.29
C      15.33       8.12      13.56
C      16.42      11.16      15.55
