17

O       5.06      10.68      15.07
C       8.63      10.12      14.58
C       8.59       8.94      13.86
H       5.20      11.39      15.46
O       8.65      12.45      16.10
O       8.44       6.54      12.49
H       9.45      10.51      14.78
H       9.38       8.55      13.58
H       5.39       8.55      13.80
O       6.23       6.70      12.32
C       7.46      10.73      15.01
O       6.43      12.57      16.06
C       7.53      12.02      15.79
C       7.37       8.35      13.56
C       6.21       8.94      13.99
C       6.24      10.13      14.71
C       7.34       7.09      12.73
