60

H       1.60       2.15       5.22
H       3.05       2.14       3.19
H      -1.60      -2.15       5.22
H      -3.05      -2.14       3.19
H      -1.60       2.15      10.48
H      -3.05       2.14      12.51
H       1.60      -2.15      10.48
H       3.05      -2.14      12.51
H      -1.60      -2.15      10.48
H      -3.05      -2.14      12.51
H       1.60       2.15      10.48
H       3.05       2.14      12.51
H       1.60      -2.15       5.22
H       3.05      -2.14       3.19
H      -1.60       2.15       5.22
H      -3.05       2.14       3.19
H      -2.47       0.00       7.85
H       2.47       0.00       7.85
C       1.91       1.21       4.77
C       2.72       1.21       3.63
C      -1.91      -1.21       4.77
C      -2.72      -1.21       3.63
C      -1.91       1.21      10.93
C      -2.72       1.21      12.07
C       1.91      -1.21      10.93
C       2.72      -1.21      12.07
C      -1.91      -1.21      10.93
C      -2.72      -1.21      12.07
C       1.91       1.21      10.93
C       2.72       1.21      12.07
C       1.91      -1.21       4.77
C       2.72      -1.21       3.63
C      -1.91       1.21       4.77
C      -2.72       1.21       3.63
C       1.38       0.00       7.85
C      -1.38       0.00       7.85
C       0.70       0.00       6.62
C       1.50       0.00       5.36
C       3.14       0.00       3.06
C       4.07      -0.00       1.89
C      -0.70       0.00       6.62
C      -1.50       0.00       5.36
C      -3.14       0.00       3.06
C      -4.07      -0.00       1.89
C      -0.70       0.00       9.08
C      -1.50       0.00      10.34
C      -3.14       0.00      12.64
C      -4.07      -0.00      13.81
C       0.70       0.00       9.08
C       1.50       0.00      10.34
C       3.14       0.00      12.64
C       4.07      -0.00      13.81
O       4.44       1.14       1.44
O      -4.44      -1.14       1.44
O      -4.44       1.14      14.26
O       4.44      -1.14      14.26
O      -4.44      -1.14      14.26
O       4.44       1.14      14.26
O       4.44      -1.14       1.44
O      -4.44       1.14       1.44
