37

Mn       3.58      -3.28      11.02
H       0.68       6.57       1.58
H       1.84       4.39       1.34
H       2.14       0.83       2.33
H       3.01       0.18       4.54
H       3.22       7.85       2.57
H      -0.52       7.04       4.79
H       2.57      -0.09       9.40
H       1.41       2.09       9.64
H       1.10       5.65       8.66
H       0.24       6.28       6.45
H       0.04      -1.38       8.42
H       3.78      -0.59       6.19
C       0.32       5.85       0.85
C       1.04       4.48      10.87
C       1.02       4.65       0.67
C       1.53      -1.39       4.85
C       3.67       6.13       0.12
C       1.62       0.08       2.92
C       2.19      -0.38       4.12
C      -0.48       8.36       3.09
C       0.03       7.84       4.30
C       2.92       0.63      10.13
C       2.20       2.00       0.12
C       2.23       1.83      10.31
C       1.73       7.86       6.13
C      -0.42       0.35      10.85
C       1.63       6.40       8.07
C       1.06       6.84       6.87
C       3.73      -1.89       7.89
C       3.22      -1.37       6.68
N       0.49      -0.42       2.38
N       0.16       5.17      10.44
N       3.07       7.38       0.28
N       2.75       6.89       8.61
N       3.09       1.32       0.55
N       0.18      -0.90      10.70
