324

Co      13.94      15.40      14.86
Co       7.13       9.22      10.52
Co       3.62       4.52      12.27
Co       5.64       6.37      10.59
Co      15.08      13.84      12.28
Co      15.63       5.91      17.30
Co      15.90      12.70       1.28
Co      19.12      17.80      19.05
Co      11.91      13.54      16.52
Co      21.13      19.65      17.38
Co       2.48       6.07      14.85
Co      13.84      12.54       3.73
Co       8.79       9.96      13.56
Co      12.28      18.26      13.57
Co      16.52      16.60      16.95
Co      13.02       8.30      16.95
Co      10.33       7.83       5.48
Co      17.14      14.01       9.83
Co      20.64      18.71       8.08
Co      18.63      16.87       9.75
Co       9.19       9.39       8.06
Co       8.64      17.32       3.05
Co       8.37      10.53      19.06
Co       5.15       5.44       1.29
Co      12.36       9.69       3.82
Co       3.14       3.58       2.96
Co      21.79      17.17       5.50
Co      10.43      10.69      16.61
Co      15.48      13.28       6.78
Co      11.99       4.98       6.78
Co       7.74       6.64       3.39
Co      11.24      14.93       3.39
Co       0.00       0.00       0.00
Co       3.50       8.30       0.00
Co       1.04       3.32      10.17
Co       4.53      11.62      10.17
H      17.68      14.64      13.78
H      14.63      15.24      18.67
H      18.41      17.98      15.27
H      13.58      11.85      18.46
H       9.68      17.42      12.63
H      12.39      15.08      11.33
H      10.54      13.41      13.76
H      19.37      21.50      15.44
H      16.67       6.03       2.33
H      14.90      19.08      14.61
H      15.40      18.62      20.06
H      18.06      14.12      19.59
H       7.04       6.53      13.40
H      12.34       8.49      14.19
H      15.50       9.69       1.61
H       7.29       3.77      10.96
H      15.86       8.59      14.38
H      12.16      21.27      15.88
H      19.39      21.75      18.97
H      13.74       8.22      19.77
H      13.62      11.49      14.88
H       5.24      11.50      13.02
H       7.43      11.90       7.71
H       9.05      19.61      15.27
H      10.21       7.98      19.48
H       3.85       8.44      12.14
H      18.51      11.45       2.27
H      10.22      16.14      15.93
H       8.93       6.29       8.56
H       1.78       3.46       0.17
H       4.00       7.04      18.25
H       6.87       9.45      15.70
H      10.65      10.53      11.39
H       2.83       4.79       8.51
H       3.81       8.08       8.76
H      15.11       5.21      13.31
H       6.59       8.60       6.56
H       9.64       7.99       1.67
H       5.86       5.25       5.07
H      10.69      11.39       1.88
H      14.59       5.82       7.71
H      11.87       8.15       9.01
H      13.73       9.83       6.58
H       4.90       1.74       4.90
H       7.60      17.21      18.02
H       9.37       4.15       5.73
H       8.87       4.62       0.28
H       6.21       9.12       0.76
H      17.23      16.71       6.94
H      11.93      14.74       6.16
H       8.77      13.55      18.73
H      16.98      19.46       9.38
H       8.41      14.65       5.97
H      12.11       1.97       4.46
H       4.88       1.49       1.37
H      10.53      15.02       0.58
H      10.65      11.74       5.46
H      19.02      11.74       7.32
H      16.84      11.33      12.64
H      15.22       3.62       5.08
H      14.05      15.25       0.87
H      20.42      14.79       8.20
H       5.75      11.79      18.07
H      14.05       7.09       4.41
H      15.34      16.94      11.78
H      22.49      19.77      20.17
H      20.27      16.19       2.09
H      17.40      13.78       4.64
H      13.62      12.71       8.96
H      21.44      18.44      11.84
H      20.46      15.15      11.59
H       9.16      18.03       7.03
C      17.03      14.96      14.35
C      14.19      15.05      17.88
C      18.86      18.17      16.06
C      13.10      11.21      17.99
C       9.61      18.28      12.29
C      12.60      15.57      12.10
C      10.29      12.59      14.13
C      12.91       5.50      15.92
C      17.47       6.28       1.93
C      14.99      18.20      14.88
C      16.05      18.24      19.52
C      18.06      14.94      19.15
C       7.29       7.35      13.04
C      11.61       8.98      14.49
C      14.89      10.05       2.22
C      13.56      20.20      11.53
C      15.46       8.20      15.13
C      11.98      20.86      15.06
C      19.17      20.93      19.35
C      14.44       7.68      19.48
C      13.87      12.32      14.53
C       5.96      10.99      12.71
C       7.00      11.49       8.42
C       8.43      19.98      15.85
C      10.62       8.38      18.74
C       3.66       7.62      12.54
C      18.34      10.99       1.48
C      11.02      16.34      15.50
C       8.24       6.67       9.06
C       1.51       2.64       0.54
C       3.31       6.80      17.68
C       7.55       9.75      16.25
C       9.98      10.18      10.84
C       3.34       4.90       9.28
C       4.37       8.72       9.15
C      15.76       4.91      12.71
C       7.24       8.27       5.99
C      10.08       8.18       2.46
C       5.41       5.07       4.28
C      11.17      12.02       2.36
C      14.66       4.95       8.05
C      11.67       7.66       8.25
C      13.98      10.64       6.22
C      11.36      17.73       4.42
C       6.80      16.96      18.42
C       9.28       5.03       5.46
C       8.21       5.00       0.82
C       6.21       8.29       1.19
C      16.97      15.89       7.31
C      12.66      14.26       5.85
C       9.38      13.19      18.12
C      10.71       3.04       8.81
C       8.81      15.03       5.22
C      12.29       2.37       5.28
C       5.10       2.31       0.99
C       9.82      15.55       0.87
C      10.40      10.92       5.81
C      18.31      12.24       7.63
C      17.27      11.74      11.93
C      15.84       3.25       4.49
C      13.65      14.85       1.60
C      20.61      15.61       7.80
C       5.93      12.24      18.86
C      13.25       6.89       4.84
C      16.03      16.56      11.29
C      22.76      20.59      19.80
C      20.96      16.43       2.66
C      16.71      13.48       4.09
C      14.29      13.06       9.50
C      20.93      18.33      11.06
C      19.90      14.52      11.20
C       8.51      18.32       7.63
O       4.06       9.93       9.05
O      12.58      19.88      14.82
O      11.97      16.65      12.25
O       9.55      11.88      13.42
O      18.04       8.56      20.22
O      12.55       6.62      15.85
O       8.02       8.05      13.74
O      13.50      10.03      18.07
O      17.50       7.44       1.43
O      18.97       9.91       1.26
O      13.54      19.12      12.14
O      17.37      15.48      15.41
O      15.33       4.44      11.70
O      14.55       8.80      15.61
O      15.64      17.68      18.48
O      11.08      17.43      15.01
O       6.04      12.10       8.85
O       8.27       7.93       9.28
O      11.54       7.81      18.28
O      14.01       9.25       2.72
O      15.34       7.39      20.29
O      15.97       7.09      15.54
O       7.29       5.90       9.47
O      17.13      15.18      18.35
O      16.50      14.28       0.14
O      15.96      18.02      15.52
O       8.59      21.22      16.08
O       7.29       9.82      17.45
O       8.62      18.52      11.55
O      15.00      11.25       2.49
O      13.17      14.32      17.95
O       3.06       7.65      13.65
O       7.57      19.19      16.27
O       6.86      10.71      13.51
O       4.11       4.85      14.30
O      10.72       9.22      13.64
O      17.49      11.48       0.69
O      13.48      15.07      12.87
O       7.49      10.39       8.76
O      10.26      10.08       9.67
O      19.85      18.86      15.98
O      10.10       9.52      18.34
O       3.56       6.77      16.47
O       4.38       5.59       9.19
O       2.91       4.34      10.34
O      14.48      12.29      13.47
O      14.43       7.27      18.24
O       5.41       8.32       9.75
O      18.38      17.67      17.13
O      17.22      18.34      19.91
O      14.65      15.54      16.80
O       4.03       6.58      11.93
O       1.96       2.33       1.74
O       1.79       5.09      13.11
O      11.91      15.39      15.54
O       6.84       7.59      11.88
O       8.67      10.04      15.67
O      15.79      14.85      14.00
O      10.54      19.10      12.63
O      12.14      11.62      17.35
O       8.89       9.86      11.44
O      20.90      21.54      16.53
O       5.94      10.64      11.48
O      19.03      15.75      19.42
O      11.64       9.31      15.70
O       5.66       4.50      11.63
O      13.55      13.33      15.19
O       2.16       6.54      18.21
O      14.02      17.44      14.47
O       3.13       5.47       1.95
O      10.74      12.32      15.28
O      19.50      19.85      18.70
O      20.21      13.30      11.29
O      11.69       3.35       5.53
O      12.30       6.59       8.10
O      14.72      11.35       6.92
O       6.22      14.67       0.12
O      11.72      16.61       4.49
O      16.25      15.19       6.60
O      10.77      13.20       2.27
O       6.76      15.80      18.91
O       5.30      13.33      19.08
O      10.73       4.11       8.20
O       6.89       7.76       4.93
O       8.94      18.80       8.64
O       9.72      14.43       4.74
O       8.63       5.56       1.87
O      13.19       5.80       5.33
O      18.23      11.13      11.49
O      16.00      15.31      11.06
O      12.73      15.42       2.06
O      10.26      13.99      17.63
O       8.93      15.84       0.05
O       8.30      16.15       4.81
O      16.97      17.33      10.87
O       7.14       8.06       1.99
O       7.77       8.95      20.20
O       8.31       5.22       4.82
O      15.68       2.02       4.26
O      16.98      13.41       2.89
O      15.64       4.71       8.79
O       9.27      11.98      17.86
O      11.10       8.91       2.39
O      21.21      15.58       6.70
O      16.70       4.04       4.08
O      17.41      12.52       6.84
O      20.16      18.38       6.04
O      13.55      14.01       6.70
O       6.78      11.75      19.65
O      10.79       8.16       7.47
O      16.78      12.84      11.58
O      14.01      13.15      10.67
O       4.42       4.37       4.37
O      14.17      13.72       2.00
O      20.71      16.46       3.88
O      19.88      17.64      11.15
O      21.36      18.89      10.00
O       9.79      10.94       6.88
O       9.84      15.96       2.10
O      18.86      14.91      10.59
O       5.89       5.57       3.22
O       7.05       4.90       0.43
O       9.62       7.69       3.54
O      20.24      16.65       8.42
O      22.31      20.90      18.61
O      22.48      18.15       7.23
O      12.36       7.85       4.81
O      17.43      15.65       8.46
O      15.60      13.19       4.68
O       8.48       8.38       6.34
O      13.73       4.13       7.71
O      12.13      11.61       2.99
O      15.38      13.37       8.91
O       3.37       1.69       3.81
O      18.33      12.60       8.87
O       5.24       7.49       0.92
O      12.63      13.93       4.64
O      18.61      18.73       8.71
O      10.72       9.91       5.15
O      22.10      16.70       2.14
O      10.25       5.80       5.87
O      21.14      17.77      18.40
O      13.53      10.91       5.06
O       4.77       3.39       1.65
