852

H      24.37       3.48      51.28
H      24.99      23.71      53.88
H       0.59      24.09      48.10
H       3.29       0.62      22.21
H      23.56       0.08      24.88
H      23.85      24.35      19.13
H      24.43      21.69      15.43
H      24.97       1.42      12.74
H       0.66       1.15      18.50
H       3.24      24.91      44.36
H      23.45       0.23      41.79
H      23.86       0.99      47.56
H       0.76      19.81      52.72
H       0.74      18.12      54.42
H      23.38      22.20      55.06
H      23.39      20.54      56.77
H      22.57      18.23      57.19
H      22.67      16.42       0.89
H       1.56      17.77      56.78
H       1.65      15.95       0.46
H      24.64      14.00      57.31
H      24.64      11.47      57.29
H      24.71      12.53       3.13
H      24.70      12.49       5.47
H      24.74      17.63       3.09
H      24.72      17.60       5.63
H      22.69      15.87       8.29
H      22.74      17.54      10.00
H       1.65      16.34       7.68
H       1.71      18.01       9.40
H      24.75      13.71       9.36
H      24.74      11.19       9.34
H      24.71       7.42       2.97
H      24.73       7.39       5.51
H       1.63       9.06       8.13
H       1.64       7.39       9.85
H      22.65       8.60       7.70
H      22.65       6.95       9.43
H      23.47       4.63       9.83
H      23.46       2.96      11.54
H       0.82       5.33      13.91
H       0.81       7.03      12.22
H      22.68       9.13       0.33
H      22.64       7.61      56.68
H       0.66       4.81      57.03
H       0.68       3.02      55.45
H      23.66       5.38      52.74
H      23.64       7.18      54.33
H       1.61       7.18      57.27
H       1.65       8.69       0.91
H       0.74      20.37       9.66
H       0.75      22.14      11.25
H      23.76      17.96      12.36
H      23.76      19.75      13.95
H      19.64      24.22      23.72
H      17.95      24.24      25.42
H      22.01       1.62      26.06
H      20.35       1.61      27.77
H      18.03       2.42      28.18
H      16.39       2.42      29.92
H      17.60      23.43      27.78
H      15.95      23.44      29.51
H      13.82       0.35      28.29
H      11.29       0.34      28.26
H      12.50       0.37      32.16
H      12.46       0.33      34.49
H      17.61       0.31      32.13
H      17.56       0.33      34.67
H      15.95       2.41      37.23
H      17.58       2.34      38.97
H      16.17      23.41      36.84
H      17.78      23.32      38.59
H      13.67       0.39      38.39
H      11.14       0.40      38.35
H       7.40       0.34      31.98
H       7.36       0.31      34.52
H       9.09      23.46      37.21
H       7.39      23.44      38.90
H       8.47       2.40      36.63
H       6.78       2.39      38.32
H       4.45       1.36      38.60
H       2.69       1.30      40.22
H       5.17      24.33      42.86
H       6.94      24.40      41.25
H       9.11       2.39      29.33
H       7.43       2.34      27.63
H       4.63      24.32      27.97
H       2.85      24.30      26.38
H       5.22       1.32      23.68
H       7.01       1.33      25.27
H       7.00      23.36      28.21
H       8.67      23.43      29.92
H      20.14      24.01      38.98
H      21.82      23.93      40.66
H      17.91       1.52      41.34
H      19.62       1.46      43.02
H      18.38      22.66      46.28
H      18.99      17.70      48.88
H      19.79      18.08      43.10
H      22.49      19.80      17.21
H      17.56      19.25      19.88
H      17.86      18.34      14.13
H      18.44      15.67      10.43
H      18.98      20.59       7.74
H      19.86      20.32      13.50
H      22.44      18.89      39.36
H      17.46      19.41      36.79
H      17.87      20.17      42.56
H      19.96      13.80      47.72
H      19.94      12.11      49.42
H      17.39      16.18      50.06
H      17.40      14.53      51.77
H      16.57      12.21      52.19
H      16.57      10.58      53.94
H      20.76      11.76      51.78
H      20.74      10.11      53.51
H      18.64       7.98      52.31
H      18.65       5.46      52.29
H      18.62       6.68      56.19
H      18.71       6.48       0.47
H      18.64      11.78      56.14
H      18.73      11.58       0.63
H      16.70       9.86       3.29
H      16.75      11.53       5.00
H      20.85      10.33       2.68
H      20.91      11.99       4.40
H      18.76       7.70       4.36
H      18.75       5.17       4.34
H      18.62       1.57      56.02
H      18.74       1.37       0.51
H      20.83       3.04       3.13
H      20.84       1.38       4.85
H      16.66       2.58       2.70
H      16.66       0.94       4.43
H      17.48      23.80       4.83
H      17.46      22.14       6.54
H      20.02      24.51       8.91
H      20.01       1.02       7.22
H      16.59       3.28      53.38
H      16.65       1.59      51.68
H      19.86      23.98      52.03
H      19.88      22.20      50.45
H      17.66      24.56      47.74
H      17.65       1.17      49.33
H      20.81       1.16      52.27
H      20.75       2.85      53.96
H      19.94      14.36       4.66
H      19.95      16.13       6.25
H      17.77      11.94       7.36
H      17.77      13.73       8.95
H      13.65      18.20      18.72
H      11.96      18.23      20.42
H      16.02      20.79      21.06
H      14.36      20.78      22.77
H      12.04      21.60      23.18
H      10.40      21.60      24.92
H      11.61      17.41      22.78
H       9.95      17.42      24.51
H       7.83      19.53      23.29
H       5.30      19.52      23.26
H       6.51      19.55      27.16
H       6.47      19.51      29.49
H      11.61      19.49      27.13
H      11.57      19.50      29.67
H       9.95      21.59      32.23
H      11.59      21.52      33.97
H      10.18      17.39      31.84
H      11.79      17.31      33.59
H       7.68      19.57      33.39
H       5.15      19.57      33.35
H       1.41      19.51      26.98
H       1.37      19.49      29.52
H       3.10      17.44      32.21
H       1.40      17.42      33.90
H       2.48      21.58      31.63
H       0.79      21.57      33.32
H      23.65      20.54      33.60
H      21.89      20.48      35.22
H      24.37      18.31      37.86
H       0.95      18.38      36.25
H       3.12      21.57      24.33
H       1.44      21.51      22.63
H      23.83      18.30      22.97
H      22.05      18.28      21.38
H      24.42      20.50      18.68
H       1.02      20.51      20.27
H       1.01      17.35      23.21
H       2.68      17.41      24.92
H      14.15      18.00      33.98
H      15.83      17.91      35.66
H      11.92      20.70      36.34
H      13.63      20.64      38.02
H      12.39      16.64      41.28
H      13.00      11.68      43.88
H      13.80      12.06      38.10
H      16.50      13.78      12.21
H      11.57      13.24      14.88
H      11.87      12.32       9.13
H      12.45       9.66       5.43
H      12.99      14.58       2.74
H      13.87      14.31       8.50
H      16.45      12.88      34.36
H      11.47      13.39      31.79
H      11.88      14.15      37.56
H      13.97       7.78      42.72
H      13.95       6.09      44.42
H      11.40      10.17      45.06
H      11.41       8.51      46.77
H      10.58       6.20      47.19
H      10.58       4.56      48.94
H      14.76       5.74      46.78
H      14.75       4.09      48.51
H      12.65       1.97      47.31
H      12.66      24.63      47.29
H      12.63       0.67      51.19
H      12.61       0.63      53.52
H      12.65       5.77      51.14
H      12.63       5.74      53.68
H      10.60       4.01      56.34
H      10.76       5.51       0.00
H      14.75       4.48      55.73
H      14.81       6.15      57.45
H      12.67       1.85      57.41
H      12.65      24.52      57.39
H      12.63      20.75      51.02
H      12.64      20.72      53.57
H      14.74      22.39      56.19
H      14.74      20.72      57.91
H      10.56      21.93      55.75
H      10.56      20.28      57.49
H      11.39      17.96      57.89
H      11.47      16.13       1.54
H      14.03      18.50       3.91
H      14.02      20.19       2.22
H      10.60      22.46      48.38
H      10.66      20.77      46.68
H      13.87      17.97      47.03
H      13.89      16.18      45.45
H      11.67      18.55      42.74
H      11.66      20.35      44.33
H      14.82      20.34      47.27
H      14.76      22.02      48.96
H      13.85       8.51      57.71
H      13.96      10.12       1.25
H      11.77       5.93       2.36
H      11.78       7.72       3.95
H       7.66      12.19      13.72
H       5.97      12.21      15.42
H      10.03      14.78      16.06
H       8.37      14.77      17.77
H       6.05      15.58      18.18
H       4.41      15.58      19.92
H       5.62      11.40      17.78
H       3.96      11.41      19.51
H       1.84      13.51      18.29
H      24.50      13.51      18.26
H       0.52      13.53      22.16
H       0.48      13.49      24.49
H       5.62      13.48      22.13
H       5.58      13.49      24.67
H       3.96      15.57      27.23
H       5.60      15.50      28.97
H       4.19      11.38      26.84
H       5.80      11.30      28.59
H       1.69      13.55      28.39
H      24.35      13.56      28.35
H      20.61      13.50      21.98
H      20.57      13.48      24.52
H      22.30      11.43      27.21
H      20.60      11.41      28.90
H      21.68      15.56      26.63
H      19.99      15.55      28.32
H      17.66      14.53      28.60
H      15.90      14.47      30.22
H      18.38      12.30      32.86
H      20.15      12.37      31.25
H      22.32      15.56      19.33
H      20.64      15.50      17.63
H      17.84      12.29      17.97
H      16.06      12.27      16.38
H      18.43      14.48      13.68
H      20.22      14.49      15.27
H      20.21      11.33      18.21
H      21.88      11.40      19.92
H       8.16      11.99      28.98
H       9.84      11.90      30.66
H       5.93      14.68      31.34
H       7.64      14.62      33.02
C      24.85      24.31      51.93
C      24.68       1.45      51.44
C      24.92      25.06      49.68
C      -0.07      24.80      48.33
C      24.88      23.37      52.94
C      24.58       2.74      51.91
C      24.13       0.17      22.93
C       1.26       0.31      22.40
C      24.84       0.07      20.66
C      24.55      25.03      19.33
C      23.20       0.15      23.95
C       2.56       0.41      22.84
C      24.87       0.85      14.69
C      24.73      23.72      15.23
C      24.95       0.15      16.96
C      -0.02       0.45      18.30
C      24.90       1.77      13.67
C      24.64      22.42      14.79
C      24.07      25.32      43.73
C       1.20      25.18      44.22
C      24.81      25.31      45.99
C      24.53       0.30      47.33
C      23.12       0.17      42.73
C       2.50      25.12      43.74
C      24.73      13.25       0.10
C      24.74      11.87       0.09
C      24.72      11.42       1.41
C      24.73      13.68       1.43
C      24.74      15.04       1.85
C      24.73      15.46       3.21
C      24.72      15.43       5.45
C      24.72      16.76       5.04
C      24.73      16.78       3.66
C      24.72      14.97       6.80
C      24.72      13.60       7.19
C      24.73      11.34       7.17
C      24.73      11.77       8.50
C      24.74      13.15       8.51
C      24.73       9.98       6.75
C      24.72       9.56       5.39
C      24.72       9.59       3.15
C      24.72       8.26       3.56
C      24.72       8.24       4.94
C      24.72      10.05       1.81
C      24.76       9.06       0.78
C       0.78       8.44       0.43
C       0.71       7.61      57.49
C      24.73       7.23      56.80
C      23.51       7.87      57.14
C      23.58       8.69       0.09
C      24.76       6.18      55.83
C      24.12       6.31      54.58
C      24.14       5.26      53.64
C      24.79       4.05      53.94
C       0.22       3.90      55.20
C       0.22       4.96      56.12
C      24.74       8.98       7.75
C       0.75       8.61       8.40
C       0.75       7.64       9.42
C      24.74       7.00       9.82
C      23.54       7.37       9.16
C      23.54       8.35       8.15
C      24.74       6.00      10.85
C       0.28       6.17      12.05
C       0.28       5.18      13.05
C      24.76       3.98      12.88
C      24.01       3.81      11.69
C      24.00       4.80      10.69
C      24.76      15.96       7.83
C      23.58      16.31       8.52
C      23.62      17.28       9.54
C      24.83      17.94       9.87
C       0.81      17.57       9.17
C       0.78      16.59       8.17
C      24.86      18.98      10.85
C       0.31      20.21      10.57
C       0.30      21.26      11.50
C      24.87      21.10      12.76
C      24.24      19.88      13.06
C      24.23      18.83      12.11
C      24.75      16.04       0.84
C      23.55      16.67       0.44
C       0.76      16.40       0.19
C       0.66      17.53      57.22
C      24.66      18.17      56.81
C      23.46      17.81      57.47
C      24.66      19.16      55.77
C      23.92      20.36      55.92
C      23.93      21.34      54.91
C      24.69      21.17      53.73
C       0.21      19.97      53.57
C       0.21      18.98      54.58
C      13.24       0.36      29.13
C      11.86       0.36      29.11
C      11.40       0.36      30.43
C      13.66       0.36      30.46
C      15.01       0.35      30.89
C      15.43       0.35      32.25
C      15.40       0.35      34.49
C      16.73       0.34      34.08
C      16.76       0.33      32.70
C      14.93       0.36      35.83
C      13.56       0.37      36.22
C      11.31       0.36      36.19
C      11.73       0.38      37.52
C      13.11       0.38      37.54
C       9.95       0.35      35.76
C       9.53       0.35      34.40
C       9.56       0.35      32.16
C       8.23       0.34      32.57
C       8.21       0.33      33.95
C      10.03       0.36      30.82
C       9.05       0.32      29.78
C       8.42      24.30      29.44
C       7.43      24.26      28.44
C       7.05       0.25      27.75
C       7.70       1.46      28.09
C       8.68       1.50      29.10
C       6.01       0.22      26.77
C       6.14       0.85      25.52
C       5.09       0.84      24.57
C       3.88       0.19      24.87
C       3.73      24.76      26.13
C       4.78      24.76      27.06
C       8.94       0.34      36.76
C       8.61      24.33      37.44
C       7.62      24.33      38.44
C       6.92       0.32      38.78
C       7.25       1.51      38.10
C       8.25       1.52      37.11
C       5.88       0.30      39.77
C       6.05      24.85      41.02
C       5.02      24.82      41.97
C       3.78       0.24      41.70
C       3.59       0.87      40.45
C       4.63       0.91      39.51
C      15.91       0.32      36.86
C      16.33       1.51      37.51
C      17.28       1.46      38.54
C      17.85       0.23      38.96
C      17.42      24.24      38.31
C      16.46      24.28      37.28
C      18.85       0.18      39.98
C      20.00      24.56      39.83
C      21.00      24.52      40.82
C      20.89      25.30      41.99
C      19.74       0.90      42.17
C      18.73       0.94      41.18
C      16.02       0.33      29.88
C      16.65       1.53      29.48
C      16.39      24.32      29.24
C      17.35      24.32      28.21
C      17.99       0.33      27.80
C      17.62       1.53      28.46
C      18.98       0.32      26.77
C      20.18       1.07      26.92
C      21.16       1.06      25.92
C      21.00       0.30      24.74
C      19.80      24.77      24.57
C      18.81      24.77      25.58
C      18.86      18.30      46.93
C      18.69      20.62      46.44
C      18.93      19.05      44.68
C      19.13      18.79      43.33
C      18.89      17.36      47.94
C      18.59      21.92      46.91
C      18.14      19.34      17.93
C      20.46      19.49      17.40
C      18.85      19.24      15.66
C      18.56      19.02      14.33
C      17.21      19.32      18.95
C      21.76      19.58      17.84
C      18.88      20.02       9.69
C      18.74      17.71      10.23
C      18.96      19.32      11.96
C      19.18      19.62      13.30
C      18.90      20.95       8.67
C      18.65      16.41       9.79
C      18.07      19.30      38.73
C      20.40      19.16      39.22
C      18.82      19.30      40.99
C      18.54      19.47      42.33
C      17.13      19.35      37.73
C      21.70      19.11      38.74
C      18.64       7.40      53.15
C      18.64       6.02      53.14
C      18.62       5.57      54.46
C      18.64       7.83      54.48
C      18.64       9.19      54.90
C      18.63       9.61      56.26
C      18.73       9.42       0.45
C      18.73      10.75       0.04
C      18.63      10.94      56.71
C      18.73       8.96       1.80
C      18.73       7.59       2.19
C      18.73       5.33       2.17
C      18.74       5.76       3.50
C      18.75       7.14       3.51
C      18.74       3.97       1.75
C      18.73       3.55       0.39
C      18.62       3.74      56.20
C      18.62       2.41      56.62
C      18.62       2.39      58.00
C      18.63       4.20      54.86
C      18.66       3.22      53.83
C      19.88       2.59      53.48
C      19.91       1.60      52.49
C      18.74       1.21      51.80
C      17.52       1.86      52.14
C      17.48       2.84      53.15
C      18.77       0.17      50.83
C      18.13       0.30      49.58
C      18.15      24.44      48.64
C      18.80      23.22      48.94
C      19.42      23.08      50.20
C      19.42      24.13      51.12
C      18.75       2.96       2.75
C      19.95       2.60       3.40
C      19.95       1.63       4.42
C      18.75       0.99       4.82
C      17.55       1.36       4.16
C      17.55       2.33       3.15
C      18.75      25.18       5.85
C      19.48       0.16       7.05
C      19.48      24.36       8.05
C      18.77      23.15       7.88
C      18.01      22.99       6.69
C      18.01      23.98       5.69
C      18.76       9.94       2.83
C      17.59      10.30       3.52
C      17.63      11.27       4.54
C      18.84      11.92       4.87
C      20.01      11.55       4.17
C      19.98      10.57       3.17
C      18.87      12.96       5.85
C      19.51      14.19       5.57
C      19.50      15.24       6.50
C      18.88      15.09       7.76
C      18.25      13.86       8.06
C      18.24      12.82       7.11
C      18.66      10.20      53.89
C      17.46      10.83      53.49
C      19.86      10.55      53.25
C      19.86      11.51      52.22
C      18.67      12.15      51.81
C      17.47      11.79      52.47
C      18.67      13.14      50.77
C      17.93      14.34      50.92
C      17.94      15.33      49.91
C      18.70      15.16      48.73
C      19.41      13.95      48.57
C      19.41      12.97      49.58
C       7.24      19.53      24.13
C       5.87      19.53      24.11
C       5.41      19.54      25.43
C       7.66      19.53      25.46
C       9.02      19.52      25.89
C       9.44      19.53      27.25
C       9.41      19.53      29.49
C      10.74      19.51      29.08
C      10.77      19.51      27.70
C       8.94      19.53      30.83
C       7.57      19.54      31.22
C       5.32      19.54      31.19
C       5.74      19.56      32.52
C       7.12      19.56      32.54
C       3.96      19.52      30.76
C       3.54      19.53      29.40
C       3.57      19.53      27.16
C       2.24      19.52      27.57
C       2.22      19.51      28.95
C       4.04      19.53      25.82
C       3.05      19.50      24.78
C       2.43      18.28      24.44
C       1.44      18.25      23.44
C       1.06      19.42      22.75
C       1.71      20.64      23.09
C       2.69      20.68      24.10
C       0.02      19.39      21.77
C       0.15      20.03      20.52
C      24.29      20.01      19.57
C      23.08      19.37      19.87
C      22.93      18.74      21.13
C      23.98      18.75      22.06
C       2.94      19.51      31.76
C       2.62      18.32      32.44
C       1.63      18.31      33.44
C       0.93      19.49      33.78
C       1.26      20.69      33.10
C       2.26      20.70      32.11
C      25.08      19.48      34.77
C       0.06      18.83      36.02
C      24.22      18.80      36.97
C      22.98      19.41      36.70
C      22.79      20.05      35.45
C      23.83      20.09      34.51
C       9.92      19.50      31.86
C      10.34      20.68      32.51
C      11.29      20.63      33.54
C      11.86      19.40      33.96
C      11.43      18.22      33.31
C      10.47      18.27      32.28
C      12.86      19.36      34.98
C      14.01      18.55      34.83
C      15.01      18.51      35.82
C      14.90      19.29      36.99
C      13.74      20.07      37.17
C      12.74      20.11      36.18
C      10.03      19.51      24.88
C      10.66      20.71      24.48
C      10.40      18.31      24.24
C      11.36      18.31      23.21
C      12.00      19.50      22.80
C      11.63      20.70      23.46
C      12.99      19.50      21.77
C      14.19      20.25      21.92
C      15.17      20.24      20.92
C      15.01      19.47      19.74
C      13.81      18.76      19.57
C      12.82      18.76      20.58
C      12.87      12.29      41.93
C      12.70      14.61      41.44
C      12.94      13.03      39.68
C      13.14      12.78      38.33
C      12.90      11.34      42.94
C      12.60      15.90      41.91
C      12.15      13.33      12.93
C      14.47      13.47      12.40
C      12.86      13.23      10.66
C      12.57      13.00       9.33
C      11.22      13.31      13.95
C      15.77      13.57      12.84
C      12.89      14.01       4.69
C      12.75      11.70       5.23
C      12.97      13.31       6.96
C      13.19      13.61       8.30
C      12.91      14.93       3.67
C      12.66      10.39       4.79
C      12.08      13.29      33.73
C      14.41      13.15      34.22
C      12.83      13.28      35.99
C      12.55      13.46      37.33
C      11.13      13.34      32.73
C      15.71      13.10      33.74
C      12.65       1.39      48.15
C      12.65      25.20      48.14
C      12.63      24.75      49.46
C      12.64       1.81      49.48
C      12.65       3.17      49.90
C      12.64       3.60      51.26
C      12.64       3.57      53.50
C      12.63       4.90      53.09
C      12.64       4.92      51.71
C      12.64       3.11      54.85
C      12.63       1.74      55.24
C      12.64      24.67      55.22
C      12.65      25.10      56.55
C      12.65       1.29      56.56
C      12.64      23.31      54.80
C      12.63      22.89      53.44
C      12.63      22.92      51.20
C      12.63      21.58      51.62
C      12.63      21.57      53.00
C      12.63      23.38      49.86
C      12.67      22.39      48.83
C      13.89      21.77      48.48
C      13.92      20.78      47.49
C      12.75      20.39      46.80
C      11.53      21.04      47.14
C      11.49      22.02      48.15
C      12.78      19.34      45.83
C      12.14      19.48      44.58
C      12.16      18.42      43.64
C      12.81      17.21      43.94
C      13.43      17.06      45.20
C      13.43      18.12      46.13
C      12.65      22.30      55.81
C      13.85      21.94      56.45
C      13.85      20.97      57.47
C      12.65      20.33      57.87
C      11.45      20.70      57.21
C      11.45      21.68      56.20
C      12.76      19.16       0.85
C      13.49      19.33       2.05
C      13.49      18.34       3.05
C      12.78      17.14       2.88
C      12.02      16.98       1.69
C      12.02      17.97       0.69
C      12.67       4.09      55.88
C      11.49       4.45      56.57
C      11.53       5.42      57.59
C      12.74       6.08      57.93
C      13.92       5.71      57.23
C      13.88       4.72      56.22
C      12.88       6.95       0.85
C      13.51       8.18       0.57
C      13.51       9.23       1.50
C      12.89       9.07       2.76
C      12.26       7.85       3.06
C      12.24       6.80       2.11
C      12.66       4.18      48.89
C      11.47       4.81      48.49
C      13.87       4.54      48.25
C      13.87       5.50      47.22
C      12.68       6.14      46.81
C      11.47       5.78      47.47
C      12.68       7.13      45.77
C      11.94       8.33      45.92
C      11.95       9.31      44.91
C      12.71       9.14      43.73
C      13.42       7.94      43.57
C      13.42       6.95      44.58
C       1.25      13.52      19.13
C      25.07      13.52      19.11
C      24.61      13.53      20.43
C       1.67      13.52      20.46
C       3.03      13.51      20.89
C       3.45      13.51      22.25
C       3.42      13.51      24.49
C       4.75      13.50      24.08
C       4.77      13.49      22.70
C       2.95      13.52      25.83
C       1.58      13.53      26.22
C      24.52      13.52      26.19
C      24.94      13.55      27.52
C       1.12      13.54      27.54
C      23.16      13.51      25.76
C      22.74      13.51      24.40
C      22.77      13.52      22.16
C      21.44      13.50      22.57
C      21.42      13.49      23.95
C      23.24      13.52      20.82
C      22.25      13.48      19.78
C      21.63      12.27      19.44
C      20.64      12.23      18.44
C      20.26      13.41      17.75
C      20.91      14.62      18.09
C      21.89      14.66      19.10
C      19.22      13.38      16.77
C      19.35      14.02      15.52
C      18.30      14.00      14.57
C      17.08      13.35      14.87
C      16.94      12.73      16.13
C      17.99      12.73      17.06
C      22.14      13.50      26.76
C      21.82      12.30      27.44
C      20.83      12.30      28.44
C      20.13      13.48      28.78
C      20.46      14.67      28.10
C      21.46      14.68      27.11
C      19.09      13.46      29.77
C      19.26      12.82      31.02
C      18.23      12.79      31.97
C      16.98      13.40      31.70
C      16.80      14.03      30.45
C      17.84      14.07      29.51
C       3.93      13.48      26.86
C       4.35      14.67      27.51
C       5.30      14.62      28.54
C       5.87      13.39      28.96
C       5.44      12.21      28.31
C       4.48      12.25      27.28
C       6.87      13.34      29.98
C       8.02      12.53      29.83
C       9.02      12.49      30.82
C       8.91      13.27      31.99
C       7.75      14.06      32.17
C       6.75      14.10      31.18
C       4.04      13.50      19.88
C       4.67      14.70      19.48
C       4.40      12.29      19.24
C       5.37      12.29      18.21
C       6.01      13.49      17.80
C       5.64      14.69      18.46
C       7.00      13.49      16.77
C       8.20      14.23      16.92
C       9.18      14.22      15.92
C       9.02      13.46      14.74
C       7.82      12.74      14.57
C       6.83      12.74      15.58
N      24.71       0.41      52.32
N      24.79       1.16      50.12
N      24.96      24.05      50.60
N       0.24       0.30      23.29
N       0.95       0.19      21.08
N      23.85      25.23      21.60
N      24.75      24.74      14.33
N      24.84      24.04      16.55
N      24.99       1.14      16.02
N       0.17      25.22      43.34
N       0.91      25.23      45.55
N      23.80       0.19      45.07
N      24.72      12.54       2.17
N      24.72      14.69       4.32
N      24.71      12.48       6.43
N      24.72      10.33       4.28
N      24.79       2.98      53.15
N      24.74      22.10      52.77
N      24.87      22.17      13.55
N      24.80       3.05      13.84
N      12.52       0.37      31.20
N      14.66       0.36      33.35
N      12.45       0.36      35.45
N      10.30       0.36      33.29
N       2.81       0.19      24.09
N      21.93       0.25      23.78
N      21.85      25.31      42.93
N       2.72       0.19      42.50
N      18.72      19.59      47.32
N      18.80      20.33      45.12
N      18.97      18.04      45.60
N      19.44      19.47      18.29
N      20.15      19.37      16.08
N      17.86      19.21      16.60
N      18.76      18.72       9.33
N      18.85      18.03      11.55
N      19.00      20.31      11.02
N      19.37      19.21      38.34
N      20.11      19.22      40.55
N      17.81      19.36      40.07
N      18.62       6.69      55.23
N      18.63       8.84      57.37
N      18.72       6.47       1.43
N      18.62       4.48      57.33
N      18.80      22.16      48.15
N      18.75      16.09      47.77
N      18.88      16.15       8.55
N      18.81      22.22       8.84
N       6.52      19.54      26.20
N       8.67      19.54      28.35
N       6.46      19.53      30.45
N       4.31      19.54      28.29
N      22.01      19.37      19.09
N      15.94      19.43      18.78
N      15.85      19.30      37.93
N      21.92      19.37      37.50
N      12.73      13.58      42.32
N      12.81      14.32      40.12
N      12.98      12.03      40.60
N      13.45      13.46      13.29
N      14.15      13.35      11.08
N      11.87      13.20      11.60
N      12.77      12.71       4.33
N      12.86      12.01       6.55
N      13.01      14.30       6.02
N      13.38      13.19      33.34
N      14.12      13.20      35.55
N      11.82      13.35      35.07
N      12.63       0.68      50.23
N      12.64       2.83      52.37
N      12.63       0.62      54.48
N      12.63      23.66      52.33
N      12.81      16.14      43.15
N      12.75      10.08      42.77
N      12.88      10.14       3.55
N      12.82      16.21       3.84
N       0.53      13.53      21.20
N       2.68      13.52      23.35
N       0.46      13.52      25.45
N      23.51      13.52      23.29
N      16.02      13.35      14.09
N       9.95      13.41      13.78
N       9.86      13.28      32.93
N      15.93      13.35      32.50
