42

O       5.73       9.05      13.84
O       6.89       8.37      12.00
H      11.46      10.29      15.48
C       8.09       9.33      13.80
C       6.81       8.89      13.17
C       8.09      10.03      15.01
H       7.14      10.29      20.78
H      11.46      10.29      20.78
H       7.14      10.29      15.48
C       9.30       8.99      13.18
C       9.30      10.41      15.62
C       9.30      11.16      16.90
C       9.30      12.56      16.92
H       9.30       8.45      12.24
H       9.30       8.55      17.26
H       9.30      13.09      15.97
C       9.30       8.99      23.07
C       9.30      10.41      20.64
C       9.30      11.16      19.35
C       9.30      12.56      19.33
H       9.30       8.45      24.01
H       9.30       8.55      19.00
H       9.30      13.09      20.28
H       9.30      14.35      18.13
C       9.30      10.44      18.13
C       9.30      13.27      18.13
N       9.30       9.06      18.13
C      10.51       9.33      13.80
C      11.79       8.89      13.17
C      10.51      10.03      15.01
O      12.87       9.05      13.84
O      11.71       8.37      12.00
C       8.09       9.33      22.46
C       6.81       8.89      23.09
C       8.09      10.03      21.25
O       5.73       9.05      22.41
O       6.89       8.37      24.26
O      12.87       9.05      22.41
O      11.71       8.37      24.26
C      10.51       9.33      22.46
C      11.79       8.89      23.09
C      10.51      10.03      21.25
