164

Cu       6.10       7.25       0.00
Cu       6.16      -0.07       8.20
Cu       3.36       7.25       0.00
Cu       3.14      14.42       8.20
H       7.41       9.52      13.85
H       1.31       9.63       3.89
H       1.53       3.63       5.83
H       1.38       2.86      11.37
H       8.51       1.90      14.43
H       9.05       9.48       5.72
H       6.47       3.70      15.76
H       6.58      10.88       7.42
H       7.35       9.53       0.00
H       7.36       2.19       8.23
H       0.00       1.62       1.89
H       7.43       9.19       2.94
H       0.36       5.88      11.19
H       9.19       8.51       9.61
H       9.10      14.31       4.22
H       4.96       2.72       1.10
H       5.76       7.04      12.50
H       5.46       8.96       8.79
H       5.59      14.34       4.24
H       2.02       5.40       4.54
H       2.30       5.72      12.86
H       3.21      13.67      12.08
H       7.56       2.68       5.94
H       2.10      12.77       4.82
H       0.71      10.34       1.31
H       0.67       3.21       9.07
H       2.97       3.69      16.29
H       2.04      10.54       9.45
H       0.66       2.31      13.69
H       2.27      10.08       7.13
H       7.49       1.92      11.03
H       8.87       9.07      11.96
H       9.24      10.75       3.07
H       9.20       2.23       4.22
H       9.23       3.51      10.96
H       1.68      11.46      14.38
C       4.70       8.90       2.01
C       3.44       4.19      12.62
C       3.54      11.81      12.26
C       3.37      11.35       4.53
C       4.69       4.47       3.01
C       4.61       4.79      13.07
C       4.50      11.68      11.23
C       4.53      12.06       4.90
C       1.07       4.70      15.76
C       1.05      12.00       8.08
C       0.42       3.76      14.95
C       4.56       8.90      14.51
C       0.58      11.02       7.19
C       8.76       3.77      14.93
C       8.94      11.04       6.89
C       8.09       4.73      15.70
C       8.13      12.00       7.54
C       8.72       5.94      16.08
C       8.69      13.24       7.96
C       0.43       5.93      16.10
C       0.38      13.24       8.07
C       0.57       8.37       0.27
C       4.75       1.60      10.19
C       0.62       1.08       8.36
C       4.61       5.53      14.36
C       4.73       5.47       1.91
C       4.55      12.83       6.16
C       4.52      12.65      10.11
C       8.88       8.37       0.24
C       8.93       1.07       8.36
C       7.02       9.67      12.85
C       7.18      10.21       3.18
C       7.26       2.77       4.92
C       4.78       1.73       6.31
C       7.24       2.93      11.30
C       7.86       9.41      11.77
C       8.25      11.10       3.30
C       8.21       2.53       3.93
C       8.29       3.82      11.36
C       7.81       2.47       2.59
C       8.14       5.09      11.88
C       7.34       9.42      10.47
C       8.04      12.42       3.69
C       6.52       2.95       2.25
C       3.44      10.79      13.20
C       6.89       5.47      12.38
C       6.08      10.05      10.26
C       6.77      12.80       4.13
C       5.76       3.59       3.25
C       5.81       4.54      12.39
C       5.47      10.68      11.35
C       5.72      11.84       4.18
C       5.71      10.13      12.61
C       5.87      10.62       3.48
C       5.94       3.11       4.55
C       3.48      10.17       3.80
C       5.93       3.33      11.66
C       4.58       9.97      13.47
C       4.71       9.84       3.17
C       4.77       2.81       5.29
C       4.76       2.59      11.31
C       2.12      10.63      13.83
C       2.32       9.24       3.82
C       2.21       2.98       5.29
C       2.25       2.30      11.65
C       8.71       1.82       1.61
C       3.55       3.45       4.89
C       9.31       5.99      11.93
C       8.16       8.77       9.41
C       9.15      13.39       3.64
C       1.19       9.67       0.62
C       1.24       2.43       8.58
C       2.17       4.18       0.26
C       1.40      11.41       9.39
C       3.52       3.02      11.86
C       3.59       4.45       3.89
N       1.30       7.23       0.00
N       1.08      14.40       8.20
N       8.16       7.23       0.00
N       7.94      14.40       8.20
O       5.85       8.54       1.48
O       5.90       5.93       1.48
O       5.71      13.13       6.72
O       5.68      13.10       9.68
O       3.45       5.81      14.92
O       3.58       5.93       1.48
O       3.40      13.13       6.72
O       3.37      13.10       9.68
O       1.45       9.62      13.63
O       2.48       8.04       3.84
O       1.82       1.87       4.95
O       5.71       8.42      14.92
O       2.15       1.11      11.88
O       8.01       2.75      14.37
O       8.35      10.03       6.16
O       6.94       4.36      16.33
O       6.91      11.61       8.01
O       8.25       9.59       0.40
O       8.29       2.29       8.49
O       8.32       1.47       0.52
O       9.43       6.82      12.82
O       7.69       8.49       8.32
O       5.90       1.22       9.68
O       0.39      13.20       2.93
O       5.92       2.50       1.09
O       6.70       6.80      12.69
O       5.31       9.87       9.13
O       6.55      14.14       4.39
O       2.53       5.31       3.70
O       2.20       4.74      12.87
O       2.68      12.88      12.34
O       2.11      11.78       4.88
O       2.20      10.07       0.08
O       5.93       1.25       6.72
O       2.33       2.74       8.17
O       1.82       3.88       1.39
O       0.91      11.85      10.42
O       1.15       2.70      14.46
O       1.33       9.91       6.88
O       3.54       8.54       1.48
O       3.40       8.42      14.92
O       3.59       1.22       9.68
O       3.62       1.25       6.72
O       5.76       5.81      14.92
