219

Co       1.53       4.71       8.13
Co       4.68      14.12       8.15
Co       4.67       0.01      16.29
H      -2.01       1.02       9.38
H      -2.96       3.25      10.55
H       4.45       1.02       5.66
H       2.25      -0.26       6.53
H      -2.35       3.84       7.03
H      -0.44       3.09       5.62
H       6.49       2.36       2.38
H       4.46       3.01       3.68
H       1.45      -0.52       9.43
H       0.73      -2.92       9.39
H       7.28      -2.16       6.48
H      -1.50       0.27       6.39
H       5.11       8.39       6.93
H       6.05       6.16       5.75
H      -1.35       8.39      10.64
H       0.84       9.67       9.78
H       5.43       5.58       9.27
H       3.53       6.32      10.68
H      -3.39       7.05      13.91
H      -1.36       6.41      12.61
H       1.64       9.93       6.87
H       2.36      12.33       6.91
H      -4.19      11.57       9.81
H       4.60       9.14       9.90
H       4.25      -1.80      10.72
H       3.31      -1.90       8.20
H       1.32      -5.01      12.59
H      -0.88      -3.62      13.26
H       3.93      -5.23       9.47
H       5.84      -6.09      10.82
H       0.22      10.30      13.07
H      -1.82      11.11      11.86
H      -1.68      -0.98      12.05
H      -2.40       0.18      14.15
H       4.14      -2.71      14.92
H       4.76      -4.00      12.86
H      -1.15      11.22       5.56
H      -0.21      11.32       8.09
H       1.78      14.43       3.70
H       3.98      13.04       3.03
H      -0.84      14.65       6.83
H      -2.74      15.50       5.48
H       2.88      -0.89       3.23
H       4.91      -1.69       4.44
H       4.78      10.39       4.25
H       5.50       9.24       2.15
H      -1.04      12.13       1.38
H      -1.66      13.42       3.44
H       1.12       0.79      12.48
H       0.17      -1.35      13.83
H      -1.83       4.02      14.34
H      -4.02       3.90      12.80
H       0.78       1.42      16.10
H       2.69       3.01      16.17
H       3.37      15.58       0.86
H       1.33      14.13       0.76
H       4.58       1.52      11.12
H       3.86       2.76       9.07
H       1.01       4.88      11.18
H       1.62       3.74      13.33
H       1.99       8.63       3.80
H       2.93      10.77       2.45
H       4.92       5.40       1.94
H       7.11       5.52       3.48
H       2.31       8.00       0.19
H       0.41       6.40       0.13
H      -0.27      -6.16      15.44
H       1.76      -4.71      15.53
H      -1.49       7.90       5.16
H      -0.77       6.66       7.21
H       2.08       4.54       5.10
H       1.48       5.68       2.95
C       3.51       7.01       7.71
C      -1.61       2.02       9.31
C      -2.10       3.16       9.90
C      -1.21       4.24       9.53
C      -1.31       5.56      10.00
C      -0.35       6.57       9.76
C       3.59       1.45       6.17
C       2.49       0.79       6.63
C       1.65       1.78       7.27
C       2.66       7.92       8.38
C       5.58       3.48       5.47
C       6.88       3.52       6.00
C      -1.45       3.10       5.21
C       6.58       2.68       3.42
C       5.44       3.05       4.14
C       3.07       9.34       8.38
C       2.44      10.26       7.53
C       2.83      11.60       7.56
C      -1.34      -1.75       7.13
C      -1.00      -0.41       7.08
C      -0.42       2.40       8.58
C       4.70       7.39       6.98
C       5.19       6.25       6.40
C       4.29       5.18       6.76
C       4.39       3.85       6.29
C       3.43       2.84       6.52
C      -0.50       7.97      10.12
C       0.61       8.62       9.67
C       1.44       7.64       9.01
C       0.43       1.50       7.91
C      -2.49       5.93      10.82
C      -3.79       5.89      10.29
C       4.54       6.31      11.09
C      -3.48       6.74      12.87
C      -2.35       6.37      12.15
C       0.02       0.07       7.92
C       0.66      -0.85       8.76
C       0.26      -2.18       8.74
C       4.43      11.17       9.17
C       4.09       9.82       9.21
C      -2.76      12.58       6.37
C       4.66      -2.35       9.89
C       4.17      -2.42       8.61
C       5.07      -3.28       7.86
C       4.97      -3.53       6.48
C       2.78      14.58       5.72
C       0.47      -4.78      11.96
C      -0.64      -4.05      12.30
C      -1.48      -3.99      11.12
C      -3.60      12.71       5.25
C      -0.69      12.42      10.55
C       0.61      12.85      10.25
C       1.68      12.37      11.01
C       0.31      11.04      12.27
C      -0.83      11.48      11.59
C       6.21      11.99       4.01
C       5.57      10.81       3.63
C       5.98      10.16       2.47
C       4.92      -2.36      14.25
C       5.26      -3.07      13.11
C       5.85      -3.17       9.93
C      -1.56      11.77       6.40
C      -1.07      11.83       7.68
C      -1.97      12.68       8.44
C      -1.87      12.94       9.82
C       0.31      -5.17      10.58
C       2.63      14.19       4.33
C       3.74      13.47       3.99
C       4.57      13.40       5.17
C       6.69      -3.30      11.05
C       3.78      -3.01       5.74
C       2.48      -3.44       6.04
C       1.41      -2.95       5.28
C       2.79      -1.63       4.02
C       3.93      -2.07       4.70
C      -3.11      -2.58      12.28
C      -2.47      -1.39      12.67
C      -2.88      -0.74      13.83
C      -1.82      11.77       2.04
C      -2.17      12.49       3.19
C       0.39       8.64       2.21
C       1.51       0.35      13.38
C       1.03      -0.73      14.07
C       1.92      -0.96      15.19
C       1.82      -2.03      16.10
C       5.93       7.07       0.80
C      -2.68       3.36      14.46
C      -3.79       3.29      13.66
C       4.77       2.23      14.19
C      -0.46       7.60       2.65
C       2.46      12.34       0.27
C       3.76      11.87       0.04
C       4.83      12.76       0.08
C       3.46      14.52       0.61
C       2.32      13.71       0.56
C      -0.05       6.89       3.89
C      -0.69       7.16       5.11
C      -0.30       6.47       6.25
C       1.79       4.12      11.21
C       2.12       3.49      12.40
C       2.71       0.78      14.08
C       1.58       9.08       2.90
C       2.07      10.16       2.21
C       1.17      10.38       1.09
C       1.27      11.45       0.18
C      -2.83       2.35      15.49
C       5.77       6.07       1.83
C       6.88       6.14       2.63
C      -1.68       7.19       2.10
C       3.55       1.82      13.63
C       0.64      -2.92      16.02
C      -0.66      -2.45      16.25
C      -1.73      -3.35      16.21
C      -0.36      -5.10      15.69
C       0.78      -4.29      15.73
C       3.14       2.53      12.39
C       3.78       2.26      11.17
C       3.38       2.94      10.03
C       1.30       5.29       5.07
C       0.97       5.93       3.88
N       3.29       5.66       7.57
N       0.85       6.39       9.10
N      -1.57       2.69       3.93
N       3.82      12.05       8.35
N      -0.20       3.75       8.71
N       2.23       3.02       7.18
N       4.67       6.73      12.36
N      -0.73      -2.64       7.95
N      -2.98      13.14       7.61
N       3.98      14.10       6.21
N       1.55      11.48      12.01
N       6.97      10.63       1.68
N       6.07      -3.74       8.69
N      -0.89      -4.69      10.09
N       1.54      -2.06       4.28
N      -3.87      -1.21      14.61
N       0.17       9.43       1.10
N       7.13       7.74       0.98
N       4.70      14.08       0.36
N       0.70       5.56       6.25
N       2.93      -0.01      15.18
N      -4.03       1.68      15.31
N      -1.60      -4.66      15.94
N       2.39       3.86      10.04
