11

Zn       9.01       3.12       9.86
C      10.66       1.14       8.53
C       8.42       0.52       8.53
N       9.38       1.39       8.91
O      10.59       4.27       9.65
N       7.80       4.41       8.75
C       6.55       4.19       8.25
C      11.76       4.08      10.19
C       8.35       5.62       8.50
C       7.99       2.21      12.25
O       8.40       3.34      11.74
