11

Zn       8.71       9.70      10.30
N       9.93       8.40      11.42
C      11.17       8.63      11.91
O       7.13       8.55      10.52
C       5.96       8.74       9.97
O       9.33       9.48       8.42
C       9.37       7.20      11.66
C       9.74      10.61       7.91
C       7.06      11.68      11.63
C       9.30      12.29      11.63
N       8.34      11.42      11.25
