76

Er      13.35       6.61      17.40
Er       9.47       4.09      11.39
Er       5.56       5.67       1.77
Er       9.44       8.20       7.78
H      13.91       9.74      13.85
H      12.17       9.26       9.94
H      11.85       6.10      12.88
H       6.35       4.86      14.94
H       7.51       6.26      18.85
H      10.52       5.32      15.89
H       5.00       2.54       5.32
H       6.75       3.02       9.23
H       7.06       6.19       6.29
H      12.55       7.43       4.23
H      11.40       6.02       0.32
H       8.38       6.97       3.27
C      13.03       7.41      14.90
C      13.58      10.99      11.50
C      11.23       6.69      10.30
C      12.88       7.88      13.50
C      13.37       9.13      13.13
C      13.12       9.62      11.84
C      12.40       8.85      10.92
C      11.97       7.56      11.27
C      12.21       7.08      12.57
C       8.85       4.72      13.88
C       5.35       5.66      17.30
C      10.23       6.12      18.47
C       8.48       5.06      15.28
C       7.13       5.12      15.66
C       6.79       5.54      16.95
C       7.79       5.89      17.86
C       9.14       5.77      17.50
C       9.48       5.37      16.20
C       5.87       4.88       4.26
C       5.34       1.29       7.67
C       7.68       5.59       8.86
C       6.03       4.41       5.66
C       5.55       3.15       6.04
C       5.80       2.66       7.33
C       6.52       3.44       8.25
C       6.94       4.73       7.89
C       6.70       5.21       6.59
C      10.06       7.56       5.29
C      13.56       6.63       1.87
C       8.68       6.17       0.70
C      10.43       7.22       3.89
C      11.78       7.17       3.51
C      12.12       6.75       2.22
C      11.12       6.39       1.30
C       9.77       6.52       1.67
C       9.43       6.92       2.96
O      13.72       8.11      15.74
O      12.46       6.33      15.29
O      10.11       2.05      12.25
O       8.74       2.09      10.50
O      10.85       7.19       9.20
O      11.01       5.47      10.62
O       7.93       4.37      13.04
O      10.07       4.80      13.50
O      14.92       5.15      16.53
O      15.44       6.35      18.33
O       5.82       3.93       0.40
O      11.44       5.81      18.15
O       5.18       4.18       3.42
O       6.44       5.96       3.88
O       8.80      10.24       6.92
O      10.17      10.19       8.67
O       8.07       5.09       9.97
O       7.89       6.82       8.55
O      10.98       7.92       6.13
O       8.84       7.49       5.67
O       3.99       7.14       2.64
O       3.47       5.95       0.83
O      13.10       8.36      18.77
O       7.47       6.47       1.02
