40

C       9.72       9.42      17.51
H       6.22      12.40      21.42
C      11.01      13.01      15.55
H       9.16       7.72      23.04
H      11.57       9.65      15.66
H      11.33      13.90      15.01
H       9.68      14.07      16.86
H       7.20      13.20      17.31
O      10.69       8.69      17.90
O       8.50       9.08      17.55
C      11.13      10.62      15.90
H       8.53      12.65      23.25
O      12.74      10.51      13.54
C      11.56      11.76      15.21
H       5.66      13.44      19.23
C      10.15      10.71      16.89
C       8.69      12.10      18.41
H       9.96      11.03      19.81
O      13.18      12.69      13.71
H       9.21      11.37      25.30
C      10.06      13.10      16.57
O       9.82       9.38      26.61
O       9.78       7.44      25.49
C       9.62      11.96      17.27
C       7.48      12.79      18.27
C       6.60      12.91      19.36
C       6.92      12.34      20.59
C       8.12      11.63      20.74
C       9.01      11.54      19.66
C       8.45      10.91      21.99
C       8.65      11.57      23.21
C       9.03      10.86      24.35
C       9.03       8.80      23.09
C       8.64       9.51      21.95
C       9.22       9.47      24.30
C       8.31       8.74      20.73
C       9.63       8.73      25.52
O       7.17       8.89      20.20
O       9.15       7.88      20.25
C      12.54      11.64      14.09
