40

C       4.73      -2.33      14.25
C       4.44      -5.26      17.43
C       4.86      -1.40      13.10
C       5.55      -0.19      13.23
C       5.66       0.68      12.15
C       5.08       0.37      10.92
C       4.38      -0.83      10.77
C       4.29      -1.72      11.85
C       3.64      -1.16       9.52
C       4.29      -1.37       8.29
C       3.58      -1.75       7.16
C       2.20      -1.94       7.21
C       1.53      -1.73       8.42
C       2.24      -1.35       9.56
C       1.44      -2.34       5.99
C       1.46      -1.02      10.78
H       2.44      -4.28      15.86
H       6.68      -4.04      16.50
O       1.44      -3.42      13.63
O       1.85      -1.22      13.97
O       3.30      -5.46      17.97
O       5.49      -5.89      17.82
H       6.85      -2.39      14.65
H       5.96       0.08      14.20
H       6.18       1.63      12.27
H       5.14       1.07      10.09
H       3.79      -2.68      11.72
H       5.37      -1.25       8.25
H       4.09      -1.92       6.21
H       0.46      -1.86       8.48
O       2.08      -2.55       4.90
O       0.16      -2.50       6.04
O       0.60      -1.88      11.25
O       1.59       0.11      11.33
C       2.17      -2.45      14.01
C       3.48      -2.86      14.63
C       3.41      -3.84      15.63
C       4.55      -4.27      16.32
C       5.79      -3.72      15.96
C       5.87      -2.77      14.94
