20

Ca       3.00       9.96       7.50
Ca      -0.08      11.71       8.88
C       1.01       9.59      10.46
C       5.34       8.67       5.39
C       6.13       9.37       6.48
C       3.32       7.98       4.58
C       1.92      12.08       5.93
C       4.01      13.00      11.00
C       3.22      12.31       9.90
C      -0.40      13.70      11.80
N       4.00       8.65       5.52
N      -1.08      13.02      10.86
O       1.58       9.74       9.35
O      -0.14      10.01      10.70
O       5.48      10.06       7.31
O       0.94       9.17       6.47
O       1.35      11.93       7.04
O       3.06      11.66       5.68
O       3.87      11.61       9.07
O       1.99      12.50       9.91
