138

Cu       4.14       8.56       1.02
Cu      -0.00      15.75       1.02
Cu      -4.15       8.56       1.02
Cu       5.32      -3.07      17.11
Cu      13.62      -3.07      17.11
Cu       9.47     -10.26      17.11
H       4.81       0.29      14.61
H       5.62       0.77      10.29
H      -2.65       4.04      14.61
H      -3.47       4.51      10.28
H      -2.16      -4.31      14.60
H      16.79      -5.25      10.29
H       7.31       9.80       3.53
H       7.31      10.74       7.84
H      14.28       5.20       3.52
H      -3.85       4.72       7.84
H       6.82       1.45       3.52
H       6.00       0.98       7.84
H       4.66       5.20       3.52
H       3.84       4.72       7.84
H      12.12       1.45       3.52
H      12.94       0.98       7.84
H      11.63       9.80       3.53
H      -7.32      10.74       7.84
H       2.16      -4.31      14.60
H       2.16      -5.25      10.28
H      -4.81       0.29      14.61
H      13.32       0.77      10.29
H       2.65       4.04      14.61
H       3.47       4.50      10.28
H       2.78      12.56       0.04
H      -2.78      12.56       0.03
H       0.00       7.74       0.03
H       9.47      -2.25      18.10
H      12.25      -7.07      18.09
H       6.69      -7.07      18.09
C       4.26      -0.43      17.13
C       3.86       0.84      16.46
C       4.22       1.04      15.12
C       5.24       1.63       9.75
C      -1.75       3.92      17.13
C      -2.66       2.94      16.46
C      -3.01       3.15      15.12
C      -4.03       3.74       9.74
C      -2.51      -3.46      17.12
C      -1.21      -3.76      16.45
C      -1.21      -4.17      15.11
C      17.73      -5.35       9.75
C       6.96       8.95       1.01
C       8.26       9.25       1.68
C       8.26       9.66       3.02
C       8.25      10.84       8.38
C      13.73       5.92       1.00
C      13.33       4.64       1.67
C      13.69       4.44       3.01
C      -4.23       3.86       8.38
C       7.72       1.57       0.99
C       6.81       2.55       1.67
C       6.46       2.34       3.01
C       5.45       1.75       8.38
C       5.21       5.92       1.00
C       5.61       4.64       1.67
C       5.25       4.44       3.01
C       4.23       3.86       8.38
C      11.22       1.57       1.00
C      12.13       2.55       1.67
C      12.48       2.34       3.01
C      13.49       1.75       8.38
C      11.98       8.95       1.01
C      10.68       9.25       1.68
C      10.68       9.66       3.02
C      -8.26      10.84       8.38
C       2.51      -3.46      17.12
C       1.21      -3.76      16.45
C       1.21      -4.17      15.11
C       1.22      -5.35       9.75
C      -4.26      -0.43      17.13
C      -3.86       0.84      16.45
C      -4.22       1.05      15.12
C      13.70       1.63       9.75
C       1.75       3.92      17.13
C       2.65       2.94      16.46
C       3.01       3.15      15.12
C       4.02       3.74       9.75
C       3.08       1.79      17.13
C       3.78       2.20      14.43
C       4.08       2.37      13.05
C       4.29       2.49      11.85
C       4.52       2.62      10.46
C      -3.08       1.79      17.13
C      -3.79       2.20      14.42
C      -4.08       2.37      13.05
C      -4.30       2.49      11.85
C      -4.52       2.62      10.46
C       0.00      -3.55      17.12
C       0.00      -4.37      14.42
C       0.00      -4.71      13.04
C       0.00      -4.96      11.85
C       0.00      -5.22      10.46
C       9.47       9.04       1.00
C       9.47       9.86       3.71
C       9.47      10.20       5.08
C       9.47      10.45       6.28
C       9.47      10.71       7.67
C      12.55       3.70       1.00
C      13.25       3.29       3.70
C      13.55       3.12       5.08
C      13.76       3.00       6.28
C      13.99       2.87       7.67
C       6.39       3.70       0.99
C       5.69       3.29       3.70
C       5.39       3.12       5.08
C       5.18       3.00       6.27
C       4.95       2.87       7.67
O       4.95      -1.26      16.44
O       3.85      10.33       0.20
O      -1.38       4.94      16.44
O      -1.39      14.60       0.20
O      -3.57      -3.66      16.43
O      -2.47       7.93       0.19
O       5.90       9.15       1.70
O       7.00      -2.44      17.94
O      14.42       6.74       1.69
O      13.32      -4.84      17.92
O       8.09       0.55       1.69
O       8.09      -9.11      17.92
O       4.52       6.74       1.69
O       5.62      -4.84      17.92
O      10.85       0.55       1.69
O      10.86      -9.11      17.92
O      13.04       9.15       1.70
O      11.94      -2.44      17.94
O       3.57      -3.66      16.42
O       2.47       7.93       0.19
O      -4.95      -1.26      16.44
O      -3.85      10.33       0.20
O       1.38       4.94      16.44
O       1.38      14.60       0.20
