140

Cr       0.90       2.03       4.66
Cr      12.84       8.77      13.99
Cr       7.52       2.65       4.66
Cr       6.22       8.14      13.99
Cr       9.63       5.24       4.66
Cr       4.11       5.55      13.99
H       5.27       0.99       8.61
H       8.47       9.81      10.04
H       8.47       9.81      17.94
H       5.27       0.99       0.71
H       3.93       4.24      10.97
H       9.80       6.56       7.68
H       9.80       6.55       1.64
H       3.93       4.24      17.01
H       7.21       2.34       7.95
H       6.53       8.46      10.70
H       6.53       8.46      17.28
H       7.21       2.34       1.38
H       3.15       6.11      18.11
H      10.59       4.69       0.54
H      10.59       4.69       8.79
H       3.15       6.11       9.87
H      10.26       6.04      17.14
H       3.47       4.76       1.51
H       3.47       4.76       7.81
H      10.26       6.04      10.84
H       5.79      10.54      17.77
H       7.94       0.25       0.88
H       7.94       0.26       8.45
H       5.79      10.54      10.21
H       3.60       2.00      10.15
H      10.13       8.80       8.51
H      10.14       8.80       0.82
H       3.60       2.00      17.84
H       9.14       1.23      16.41
H      11.29      10.40      15.94
H       6.86       0.29      17.42
H      11.58       9.60      17.54
H       4.60       9.57       2.25
H       2.45       0.39       2.71
H       2.16       1.20       1.12
H       6.88      10.50       1.23
H       4.60       9.57       7.08
H       2.45       0.39       6.61
H       6.88      10.50       8.09
H       2.16       1.20       8.21
H       9.14       1.23      11.58
H      11.29      10.40      12.04
H      11.58       9.60      10.44
H       6.86       0.29      10.56
C       8.88       0.77       6.59
C       4.85      10.03      12.07
C       4.85      10.02      15.92
C       8.88       0.77       2.74
C       5.79       4.64       9.85
C       7.95       6.16       8.80
C       7.95       6.16       0.52
C       5.79       4.64      18.13
C       2.41       4.56       1.51
C      11.33       6.24      17.14
C      11.33       6.24      10.84
C       2.41       4.56       7.81
C      11.64       4.96       0.53
C       2.10       5.83      18.13
C       2.10       5.84       9.85
C      11.64       4.96       8.80
C       8.88       0.16       1.41
C       4.86      10.63      17.24
C       4.86      10.63      10.74
C       8.88       0.16       7.92
C       3.69      10.72       0.74
C      10.05       0.08      17.91
C      10.05       0.08      10.07
C       3.69      10.72       8.58
C       7.90       4.71       6.77
C       5.84       6.09      11.89
C       5.84       6.09      16.09
C       7.90       4.71       2.56
C       1.77       4.09       6.60
C      11.97       6.71      12.05
C      11.97       6.71      15.93
C       1.77       4.09       2.73
C       6.19       5.85      10.47
C       7.55       4.95       8.19
C       7.55       4.95       1.14
C       6.19       5.85      17.51
C       4.66       3.87      10.27
C       9.07       6.93       8.38
C       9.08       6.93       0.94
C       4.66       3.87      17.71
C       4.45       2.58       9.79
C       9.29       8.22       8.86
C       9.29       8.22       0.47
C       4.45       2.58      18.19
C       5.36       2.02       8.92
C       8.37       8.78       9.73
C       8.38       8.78      18.25
C       5.36       2.02       0.40
C       6.42       2.79       8.47
C       7.31       8.00      10.18
C       7.31       8.00      17.80
C       6.43       2.79       0.85
C       6.58       4.13       8.81
C       7.16       6.66       9.84
C       7.16       6.66      18.14
C       6.58       4.13       0.51
C      11.46      10.58      17.02
C       2.28       0.22       1.63
C       2.28       0.22       7.70
C      11.46      10.58      10.96
N       8.92       0.63      17.21
N       4.82      10.17       1.44
N       4.82      10.17       7.89
N       8.92       0.63      10.77
O       1.97       2.89       6.19
O      11.76       7.91      12.46
O      11.76       7.91      15.52
O       1.97       2.89       3.14
O      10.01       1.07       6.07
O       3.73       9.72      12.58
O       3.73       9.72      15.40
O      10.01       1.07       3.25
O       7.78       1.26       6.17
O       5.96       9.54      12.48
O       5.96       9.54      15.50
O       7.78       1.26       3.16
O       7.10       3.96       6.05
O       6.64       6.84      12.60
O       6.64       6.84      15.38
O       7.10       3.96       3.27
O       8.28       5.77       6.17
O       5.45       5.02      12.49
O       5.45       5.02      15.49
O       8.28       5.77       3.16
O      10.96       4.89       6.07
O       2.78       5.90      12.58
O       2.78       5.90      15.40
O      10.96       4.89       3.25
O       9.36       3.31       4.66
O       4.38       7.49      13.99
