78

H       8.05       6.12       4.45
H       5.78       3.69       1.74
H       8.89       1.92       4.13
H      11.06       2.86       4.18
H      13.04       3.22       5.61
H      10.75       5.91       8.06
H       8.80       5.60       6.59
H      14.08       2.88       7.47
H      16.14       3.31       8.78
H      14.73       7.27       9.68
H      12.72       6.88       8.29
H       5.26       6.22       4.92
H       3.56       7.98       4.55
H       4.57       8.08       0.37
H       6.26       6.31       0.74
H       3.86      10.31       0.75
H       1.92      11.82       0.32
H      -0.39       9.64       3.22
H       1.52       8.14       3.64
H       4.93       1.70       1.89
H       4.46      -0.52       0.93
H       8.57      -1.63       1.50
H       9.04       0.58       2.46
H       4.82      -1.94      -0.91
H       4.46      -4.23      -1.85
H       7.17      -5.84       1.06
H       7.56      -3.57       1.98
O      17.68       4.62      10.07
O      16.89       6.65      10.76
O      -0.37      12.79       0.87
O      -1.71      11.09       1.57
O       4.96      -6.71      -2.06
O       5.93      -7.47      -0.14
C       8.64       4.04       4.36
C       7.83       5.14       4.03
C       6.79       5.01       3.10
C       6.57       3.77       2.48
C       7.32       2.64       2.84
C       8.34       2.79       3.79
C       9.78       4.20       5.27
C      10.99       3.52       5.03
C      12.10       3.72       5.85
C      12.05       4.61       6.94
C      10.83       5.27       7.19
C       9.73       5.08       6.37
C      13.24       4.85       7.77
C      14.23       3.85       7.92
C      15.38       4.08       8.67
C      15.57       5.32       9.30
C      14.59       6.31       9.18
C      13.45       6.08       8.42
C      16.80       5.55      10.10
C       5.87       6.14       2.85
C       5.12       6.65       3.92
C       4.15       7.62       3.71
C       3.92       8.15       2.43
C       4.72       7.68       1.37
C       5.67       6.68       1.57
C       2.83       9.11       2.21
C       2.93      10.16       1.28
C       1.85      11.01       1.05
C       0.64      10.82       1.73
C       0.54       9.79       2.68
C       1.62       8.95       2.92
C      -0.57      11.62       1.38
C       7.02       1.32       2.26
C       5.74       0.98       1.80
C       5.47      -0.28       1.25
C       6.48      -1.25       1.15
C       7.77      -0.91       1.61
C       8.03       0.34       2.15
C       6.23      -2.59       0.59
C       5.33      -2.80      -0.48
C       5.13      -4.07      -1.01
C       5.80      -5.17      -0.46
C       6.68      -4.98       0.62
C       6.90      -3.70       1.12
C       5.55      -6.55      -0.93
