78

C       6.10       2.10       6.43
C       6.00       0.79       5.92
C       9.37       1.84       8.35
C      10.64       1.28       8.13
C      11.71       1.56       8.98
C      11.55       2.44      10.07
C      10.28       2.99      10.29
C       9.20       2.68       9.46
C      12.71       2.82      10.90
C      13.74       1.90      11.20
C      14.85       2.29      11.94
C      14.96       3.62      12.40
C      13.94       4.54      12.11
C      12.83       4.13      11.38
C      16.13       4.05      13.19
C       5.01       3.06       6.17
C       4.65       4.04       7.12
C       3.54       4.87       6.91
C       2.75       4.76       5.75
C       3.16       3.83       4.78
C       4.25       3.00       4.99
C       1.54       5.58       5.56
C       1.38       6.84       6.16
C       0.23       7.60       5.97
C      -0.81       7.11       5.16
C      -0.67       5.85       4.56
C       0.48       5.10       4.76
C      -2.04       7.92       4.90
C       6.83      -1.57       5.69
C       5.83      -1.93       4.76
C       5.57      -3.27       4.46
C       6.31      -4.32       5.04
C       7.36      -3.95       5.90
C       7.61      -2.62       6.22
C       5.97      -5.73       4.80
C       5.36      -6.13       3.59
C       5.00      -7.46       3.38
C       5.25      -8.43       4.35
C       5.87      -8.05       5.55
C       6.22      -6.72       5.77
C       4.80      -9.83       4.10
C       7.01      -0.17       6.14
C       8.12       0.22       6.90
O       4.08     -10.03       3.08
O       5.15     -10.75       4.95
O      16.92       3.16      13.64
O      16.28       5.32      13.40
O      -2.07       9.12       5.38
O      -2.95       7.37       4.21
H       7.32       3.45       7.59
H       5.10       0.51       5.40
H      10.81       0.63       7.27
H      12.69       1.14       8.77
H      10.11       3.63      11.16
H       8.22       3.08       9.69
H      13.65       0.87      10.86
H      15.64       1.59      12.18
H      14.03       5.56      12.45
H      12.05       4.86      11.13
H       5.21       4.12       8.05
H       3.26       5.57       7.70
H       2.62       3.77       3.84
H       4.55       2.30       4.21
H       2.18       7.24       6.79
H       0.13       8.58       6.43
H      -1.49       5.47       3.96
H       0.56       4.12       4.30
H       5.24      -1.17       4.28
H       4.76      -3.50       3.78
H       7.99      -4.73       6.33
H       8.42      -2.40       6.91
H       5.17      -5.40       2.81
H       4.53      -7.75       2.44
H       6.06      -8.80       6.32
H       6.66      -6.44       6.72
H       8.91      -0.50       7.12
C       8.23       1.51       7.46
C       7.22       2.44       7.20
