10

O       7.48       2.93       0.61
Zn       5.89       3.77      -0.19
P       6.76       6.58      -1.40
N       4.80       4.60       1.31
P       3.91       1.66      -1.61
O       6.41       5.09      -1.54
P       8.58       3.34       1.61
O       5.27       2.26      -1.22
C       3.48       4.34       1.51
C       5.43       5.42       2.19
