11

Cd       5.92       3.34      21.07
N       6.86       5.39      20.66
N       5.78       2.59      18.92
O       6.72       1.71      22.53
O       4.70       4.46      22.74
C       7.93       1.68      22.11
C       3.56       4.14      22.25
C       6.68       6.42      21.48
C       7.90       5.74      19.80
C       4.93       3.06      17.93
C       6.41       1.53      18.40
