384

C      16.82       2.36      34.22
C      17.78       1.94      33.26
C      17.41       1.54      31.96
C      16.05       1.55      31.59
C      15.07       1.91      32.52
C      15.46       2.31      33.81
C      17.20       2.89      35.49
C      18.46       2.60      36.07
C      18.91       3.24      37.24
C      18.11       4.24       0.18
C      16.86       4.58      37.28
C      16.40       3.86      36.15
C       4.72       3.32       9.19
C       3.88       2.70       8.22
C       3.73       3.22       6.92
C       4.39       4.40       6.58
C       5.19       5.09       7.51
C       5.40       4.50       8.79
C       4.95       2.68      10.44
C       3.98       1.79      10.98
C       4.29       0.89      12.01
C       5.60       0.84      12.51
C       6.55       1.78      12.08
C       6.21       2.74      11.10
C      11.39      13.21      21.57
C      11.25      14.24      20.60
C      11.77      14.11      19.30
C      12.47      12.94      18.94
C      12.67      11.93      19.89
C      12.14      12.07      21.18
C      10.74      13.27      22.84
C      10.35      14.50      23.43
C       9.58      14.55      24.62
C       9.14      13.36      25.21
C       9.47      12.11      24.64
C      10.31      12.08      23.50
C      -6.22      15.40      34.05
C      -7.09      15.31      32.94
C      -6.66      15.57      31.62
C      -5.31      15.89      31.38
C      -4.44      16.09      32.46
C      -4.89      15.83      33.78
C      -6.64      15.04      35.37
C      -8.01      15.10      35.75
C      12.46      14.60      36.99
C      -7.54      13.98       0.20
C      -6.17      13.94      37.54
C      -5.72      14.52      36.33
C       6.09      16.76       8.96
C       6.73      17.50       7.92
C       7.25      16.88       6.76
C       7.12      15.49       6.62
C       6.39      14.74       7.55
C       5.84      15.38       8.68
C       5.81      17.35      10.23
C      16.95       0.42      10.67
C      16.82       0.94      11.97
C      15.96       0.31      12.88
C       4.74      17.30      12.49
C       4.93      16.76      11.19
C       1.17       4.82      21.47
C       1.64       4.09      20.34
C       1.17       4.35      19.04
C       0.24       5.38      18.82
C      -0.32       6.06      19.91
C       0.15       5.78      21.21
C       1.71       4.63      22.77
C       2.37       3.43      23.15
C       3.04       3.29      24.38
C       3.12       4.39      25.25
C       2.44       5.59      24.94
C       1.71       5.68      23.74
C      -5.32      10.59       0.41
C      14.76       9.82       1.26
C      14.63       8.42       1.05
C      15.34       7.79       0.00
C      -4.77       8.57      36.80
C      -4.65       9.96      37.00
C      12.96       8.33       2.78
C      13.12       9.72       2.99
C      11.98       7.54       3.53
C      -5.26      11.99       0.45
C      15.19       6.42      37.39
C       1.89      17.63      13.52
C      12.46       0.92      13.66
C      11.38       1.78      13.30
C      10.14       1.24      12.85
C      -0.43      17.94      12.80
C       0.65      17.10      13.11
C      12.64       3.68      14.06
C      13.69       2.83      14.44
C      12.70       5.14      14.29
C       2.86      16.67      13.86
C       9.05       2.05      12.48
C       4.87       8.05      25.44
C       5.96       7.75      26.30
C       7.23       8.33      26.06
C       7.42       9.21      24.97
C       6.33       9.48      24.11
C       5.07       8.91      24.35
C       8.17       7.02      27.83
C       6.90       6.46      28.08
C       9.36       6.59      28.59
C       3.65       7.38      25.50
C       8.67       9.76      24.66
C       5.86       8.49       6.25
C       5.02       9.52       5.77
C       5.38      10.89       5.98
C       6.63      11.22       6.54
C       7.53      10.17       6.87
C       7.12       8.83       6.81
C       3.31      11.57       4.95
C       2.97      10.22       4.75
C       2.42      12.66       4.52
C       5.42       7.16       6.25
C       7.03      12.55       6.72
C      11.70       0.93      31.49
C       0.67      17.98      30.76
C      -0.53      17.36      31.22
C      -1.18      17.82      32.40
C       9.85       0.81      33.09
C      11.02       1.42      32.63
C      -0.30      15.67      29.51
C       0.86      16.31      29.04
C      -0.79      14.41      28.92
C      13.03       1.34      31.24
C      -2.33      17.24      32.94
C      15.24       9.53      18.92
C      -4.45       9.57      18.20
C      -3.31       8.86      18.68
C      -3.40       8.09      19.87
C      -4.63       8.03      20.55
C      15.16       8.71      20.07
C      -1.97       9.90      16.98
C      -3.11      10.56      16.48
C      -0.63      10.13      16.40
C      14.20      10.44      18.63
C      -2.32       7.38      20.42
C      19.61       0.16       4.04
C      19.52       1.57       4.14
C      -1.03       2.40       3.04
C      -0.59       1.82       1.83
C      20.41       0.41       1.74
C       9.60      17.71       2.82
C      -1.52       4.36       4.34
C      -1.87       3.54       5.43
C      -1.61       5.83       4.41
C       8.82      17.42       5.08
C      -0.06       2.59       0.81
C       1.31       1.99      16.37
C       2.56       1.32      16.43
C       3.03       0.56      15.32
C       2.24       0.46      14.15
C       0.99       1.11      14.10
C       0.53       1.86      15.20
C      -5.44      18.10      16.55
C       4.54       0.74      17.65
C      -4.14      17.41      16.58
C       0.81       2.73      17.42
C      -7.86      17.73      13.11
C      -8.86      16.53      28.99
C      10.84      15.79      29.14
C       9.90      15.75      28.07
C      10.16      16.43      26.87
C      -9.56      17.18      26.73
C      -8.63      17.23      27.78
C       8.46      14.37      29.41
C       9.39      14.43      30.47
C       7.20      13.61      29.53
C      -7.93      16.62      30.00
C       9.20      16.53      25.88
C       2.32       1.01       4.52
C      -8.01      17.71       4.48
C      -7.63      17.06       3.27
C      -7.40      17.82       2.10
C       2.90       1.11       2.14
C       2.51       1.75       3.33
C      -7.61      14.95       4.43
C      -7.99      15.61       5.62
C      -7.35      13.50       4.40
C       2.28       1.68       5.74
C      -6.96      17.28       1.00
C      10.61      16.47      16.95
C       9.31      17.04      16.99
C       8.49      17.07      15.82
C       8.98      16.54      14.61
C      10.28      15.98      14.56
C      11.09      15.97      15.71
C       6.70      18.01      17.11
C       7.52      17.99      18.26
C      15.76       0.36      17.18
C      11.25      16.14      18.12
C       8.25      16.47      13.53
C      20.00       1.29      29.56
C       0.22       2.14      29.51
C       0.57       2.80      28.30
C      -0.21       2.61      27.14
C      19.60       1.73      27.18
C      19.26       1.08      28.37
C       2.35       3.94      29.45
C       2.00       3.27      30.64
C       3.45       4.91      29.42
C      19.44       0.96      30.78
C      -0.00       3.27      26.04
H      18.78       2.06      33.44
H      14.71       2.51      34.49
H      15.79       1.29      30.63
H      19.08       1.91      35.65
H      -2.41       4.81       0.93
H      15.54       4.19      35.72
H       3.50       1.76       8.38
H       5.97       5.01       9.46
H       4.31       4.74       5.62
H       3.04       1.75      10.58
H       5.87       0.08      13.14
H       6.98       3.29      10.70
H      10.63      15.03      20.78
H      12.35      11.34      21.87
H      12.82      12.83      17.99
H      10.61      15.39      23.00
H       8.46      13.40      25.98
H      10.47      11.18      23.06
H      -8.06      15.00      33.06
H      -4.24      15.99      34.55
H      -5.01      16.12      30.43
H      -8.70      15.55      35.14
H      13.04      13.56       1.07
H      -4.74      14.38      36.08
H      17.27       0.40       7.98
H       5.40      14.78       9.37
H       7.46      15.05       5.76
H      17.67       0.85      10.08
H      15.95       0.62      13.85
H       4.39      15.93      10.96
H       2.38       3.39      20.45
H      -0.29       6.27      21.99
H      -0.12       5.54      17.87
H       2.33       2.61      22.54
H       3.66       4.32      26.11
H       1.33       6.60      23.50
H      12.56      10.21       3.69
H      -4.07      10.50      36.35
H      -4.27       8.15      36.02
H      11.99       6.49       3.22
H      10.97       7.94       3.36
H      12.20       7.58       4.60
H      -5.62      12.54       1.32
H      14.86       6.20      36.45
H      14.54       3.19      14.87
H       0.51      16.08      13.03
H      -1.29      17.49      12.48
H      11.79       5.63      13.95
H      13.55       5.56      13.75
H      12.83       5.34      15.36
H       3.84      16.91      14.34
H       9.16       3.05      12.27
H       6.75       5.75      28.81
H       4.31       9.10      23.69
H       6.44      10.09      23.29
H      10.25       7.12      28.25
H       9.52       5.52      28.46
H       9.21       6.80      29.65
H       3.36       6.76      26.37
H       8.97       9.65      23.69
H       2.08       9.95       4.32
H       7.76       8.11       7.14
H       8.45      10.39       7.28
H       2.85      13.64       4.75
H       1.46      12.58       5.03
H       2.26      12.61       3.44
H       4.59       6.94       5.69
H       8.03      12.77       6.74
H       1.39      15.94      28.25
H      11.40       2.19      33.19
H       9.41       1.18      33.94
H      -1.68      14.06      29.43
H      -0.01      13.65      29.00
H      -1.02      14.56      27.86
H      13.53       0.96      30.43
H      -2.64      17.53      33.88
H      -3.05      11.21      15.69
H      14.30       8.65      20.62
H      16.18       7.48      21.41
H       0.13       9.56      16.93
H      -0.37      11.19      16.47
H      -0.62       9.84      15.35
H      14.28      11.05      17.82
H      -2.41       6.99      21.36
H      -2.18       3.94       6.32
H       9.69      16.69       2.72
H      10.31      18.08       0.88
H      -1.31       6.28       3.46
H      -0.95       6.20       5.20
H      -2.63       6.13       4.62
H       9.35      16.58       5.20
H       0.92       2.71       0.79
H       5.08       0.82      18.51
H      -0.39       2.31      15.13
H       0.39       1.02      13.28
H      -3.95      16.89      15.64
H      -4.13      16.68      17.39
H       7.11       0.03      16.74
H      -0.15       2.63      17.66
H      -8.34      16.87      13.03
H       9.22      13.95      31.35
H      -7.78      17.79      27.66
H      -9.37      17.72      25.88
H       6.61      13.68      28.61
H       6.60      14.00      30.35
H       7.42      12.56      29.72
H      -7.55      17.52      30.22
H       8.60      17.32      25.89
H      -8.11      15.09       6.49
H       2.47       2.77       3.34
H       3.10       1.69       1.32
H      -7.03      13.18       3.41
H      12.65      12.96       4.66
H      -6.57      13.25       5.12
H       1.74       1.35       6.50
H      -6.64      16.93       0.22
H      17.63       0.20      19.17
H      -8.92      15.50      15.67
H      10.64      15.55      13.71
H      15.26       0.27      16.21
H      15.73       1.41      17.48
H       4.74      17.88      17.91
H      -9.58      16.78      18.87
H       7.74      16.40      12.77
H       2.50       3.44      31.52
H      18.40       0.51      28.39
H      18.99       1.62      26.37
H       3.56       5.35      28.43
H       4.39       4.42      29.70
H       3.25       5.72      30.13
H      19.98       0.62      31.53
H       0.11       3.74      25.26
N      16.28       5.70       0.10
N      -0.72       3.17      37.53
N      13.75       1.79      32.29
N      18.26       1.42      30.97
N       7.81       1.52      12.48
N      -6.97      17.97      12.21
N       5.72       6.31       7.26
N       3.23       2.53       5.92
N       8.78      11.04      25.10
N       9.00      15.69      24.93
N      13.45      10.85      19.67
N      11.42      14.88      18.30
N      -5.29      13.24       0.64
N      11.25      14.68      37.30
N      -3.24      16.63      32.16
N      -7.54      15.58      30.64
N       4.05      16.57      13.40
N      17.53       1.90      12.34
N       6.21      13.40       7.38
N       7.78      17.64       5.81
N       2.60       6.71      25.69
N       3.61       2.22      24.67
N      -1.37       6.86      19.62
N       1.56       3.57      18.04
N      13.73       7.75       1.81
N      14.00      10.40       2.22
N      11.52       3.12      13.52
N      13.55       1.50      14.23
N       8.28       7.93      26.83
N       5.85       6.84      27.30
N       4.50      11.84       5.55
N       3.82       9.27       5.18
N      -0.94      16.23      30.57
N       1.30      17.42      29.69
N      -2.13       9.09      18.05
N      -4.29      10.38      17.12
N      -1.11       3.75       3.20
N      19.13       2.19       5.29
N      -6.23      18.04      15.44
N       3.35       1.37      17.54
N       8.75      15.04      28.27
N      10.53      15.13      30.29
N      -7.44      15.71       3.31
N      -8.16      16.95       5.60
N       7.22      17.54      15.95
N       8.77      17.50      18.15
N       1.62       3.68      28.34
N       0.95       2.42      30.63
