522

C       0.33      18.21      29.66
C       0.34      19.38      28.92
C       0.48      20.45      29.81
C       0.46      18.55      31.01
C       0.53      89.35      32.08
C       0.60      89.69      33.45
C       0.63      90.88      35.35
C       0.73      89.53      35.69
C       0.70      88.79      34.52
C       0.58      91.97      36.25
C       0.49      21.61      35.88
C       0.45      23.52      34.67
C       0.32      23.85      36.02
C       0.34      22.68      36.76
C       0.49      24.45      33.60
C       0.56      24.11      32.23
C       0.59      22.91      30.34
C       0.66      24.27      29.99
C       0.64      25.00      31.16
C       0.54      21.82      29.43
C       0.47      22.14      28.04
C      17.89      22.59      27.49
C      17.83      22.98      26.14
C       0.33      22.91      25.31
C       1.54      22.41      25.86
C       1.61      22.04      27.22
C       0.26      23.35      23.97
C       0.50      22.45      22.90
C       0.24      22.85      21.57
C      18.43      24.15      21.28
C      18.22      25.06      22.35
C      18.45      24.66      23.68
C       0.47      25.83      33.93
C      17.88      26.52      34.10
C      17.87      27.89      34.41
C       0.44      28.61      34.54
C       1.67      27.91      34.36
C       1.68      26.54      34.07
C       0.45      30.00      34.86
C      18.34      30.50      35.95
C      18.43      31.85      36.33
C       0.63      32.74      35.62
C       1.34      32.25      34.50
C       1.25      30.90      34.12
C       0.52      91.66      37.64
C       1.67      91.78      38.46
C       1.61      91.43      39.82
C       0.41      90.92      40.38
C      17.90      90.81      39.56
C      17.95      91.18      38.20
C       0.35      90.50      41.73
C      18.57      89.19      42.05
C      18.34      88.81      43.38
C      18.52      89.74      44.43
C       0.31      91.05      44.12
C       0.57      91.42      42.78
C       0.52      87.96      31.76
C       1.74      87.27      31.60
C      17.94      87.26      31.61
C      17.95      85.88      31.32
C       0.53      85.18      31.17
C       1.75      85.89      31.31
C       0.55      83.78      30.88
C       1.39      82.91      31.61
C       1.49      81.55      31.26
C       0.76      81.03      30.17
C      18.54      81.90      29.45
C      18.43      83.25      29.81
C       6.56      55.53      37.11
C       6.57      54.31      36.46
C       6.70      54.54      35.09
C       6.68      56.54      36.14
C       6.74      57.93      36.41
C       6.81      58.95      35.43
C       6.84      59.99      33.45
C       6.93      60.96      34.45
C       6.91      60.32      35.67
C       6.78      60.23      32.05
C       6.71      59.22      31.05
C       6.66      57.23      30.01
C       6.53      58.23      29.04
C       6.56      59.45      29.68
C       6.70      55.83      29.73
C       6.77      54.81      30.72
C       6.80      53.77      32.69
C       6.88      52.80      31.69
C       6.85      53.44      30.47
C       6.76      53.53      34.09
C       6.69      52.17      34.52
C       5.47      51.47      34.40
C       5.41      50.10      34.73
C       6.55      49.42      35.21
C       7.76      50.14      35.36
C       7.83      51.50      35.01
C       6.48      48.04      35.50
C       6.71      47.56      36.81
C       6.45      46.21      37.13
C       6.00      45.31      36.14
C       5.81      45.78      34.82
C       6.04      47.13      34.51
C       6.68      55.42      28.37
C       5.46      55.23      27.69
C       5.45      54.81      26.35
C       6.66      54.57      25.66
C       7.88      54.77      26.35
C       7.89      55.19      27.69
C       6.67      54.15      24.30
C       5.92      54.84      23.32
C       6.02      54.50      21.96
C       6.86      53.44      21.55
C       7.57      52.72      22.52
C       7.48      53.07      23.88
C       6.73      61.59      31.63
C       7.87      62.24      31.11
C       7.82      63.59      30.74
C       6.62      64.33      30.90
C       5.48      63.68      31.41
C       5.53      62.32      31.76
C       6.56      65.71      30.58
C       6.14      66.64      31.56
C       5.92      67.99      31.21
C       6.10      68.43      29.88
C       6.53      67.50      28.91
C       6.78      66.16      29.26
C       6.73      58.34      37.77
C       7.95      58.55      38.45
C       5.52      58.57      38.45
C       5.52      59.00      39.79
C       6.74      59.23      40.47
C       7.95      59.00      39.78
C       6.76      59.67      41.83
C       7.59      60.74      42.22
C       7.69      61.12      43.57
C       6.97      60.43      44.56
C       6.11      59.38      44.18
C       6.00      59.01      42.82
C      12.76      43.32       1.06
C      12.77      43.38       2.44
C      12.91      42.07       2.92
C      12.89      41.99       0.67
C      12.95      77.39      61.45
C      13.02      76.03      61.06
C      13.05      73.79      61.14
C      13.15      74.17      59.80
C      13.13      75.55      59.75
C      13.00      72.46      61.63
C      12.92      36.24       0.89
C      12.87      36.33       3.14
C      12.74      34.99       2.75
C      12.76      34.94       1.38
C      12.91      36.79       4.48
C      12.98      38.15       4.87
C      13.01      40.39       4.79
C      13.08      40.01       6.13
C      13.06      38.63       6.18
C      12.96      41.72       4.30
C      12.89      42.76       5.26
C      11.68      43.02       5.93
C      11.62      43.99       6.94
C      12.76      44.74       7.30
C      13.97      44.51       6.60
C      14.04      43.52       5.60
C      12.69      45.68       8.35
C      12.93      47.06       8.11
C      12.67      48.01       9.12
C      12.22      47.60      10.39
C      12.02      46.23      10.64
C      12.25      45.28       9.63
C      12.89      35.82       5.52
C      11.67      35.33       6.03
C      11.66      34.37       7.06
C      12.87      33.90       7.62
C      14.09      34.39       7.10
C      14.10      35.34       6.06
C      12.87      32.93       8.66
C      12.13      31.73       8.55
C      12.23      30.72       9.53
C      13.07      30.90      10.65
C      13.78      32.11      10.79
C      13.69      33.11       9.81
C      12.95      71.41      60.67
C      14.09      70.64      60.37
C      14.03      69.64      59.38
C      12.84      69.41      58.66
C      11.69      70.18      58.97
C      11.74      71.17      59.97
C      12.77      68.45      57.62
C      12.37      68.83      56.33
C      12.14      67.86      55.33
C      12.31      66.49      55.61
C      12.74      66.11      56.91
C      12.99      67.08      57.89
C      12.95      78.36      60.41
C      14.17      78.84      59.89
C      11.73      78.84      59.87
C      11.74      79.78      58.83
C      12.96      80.26      58.29
C      14.17      79.77      58.84
C      12.97      81.21      57.23
C      13.81      81.01      56.11
C      13.91      82.00      55.11
C      13.18      83.20      55.20
C      12.32      83.39      56.31
C      12.21      82.40      57.31
C      13.47      28.08      12.81
C      13.00      28.12      14.15
C      13.77      27.49      15.16
C      14.99      26.85      14.87
C      15.43      26.80      13.53
C      14.67      27.40      12.51
C      15.81      26.36      15.92
C      15.37      25.37      16.82
C      16.17      25.03      17.94
C      17.41      25.68      18.18
C      17.85      26.65      17.26
C      17.07      26.98      16.13
C      18.09      25.51      19.38
C      12.86      28.79      11.80
C       1.05      36.01      36.99
C       0.58      37.15      36.28
C       1.34      38.33      36.31
C       2.57      38.41      37.02
C       3.01      37.27      37.74
C       2.25      36.09      37.73
C       3.39      39.56      36.91
C       2.94      40.84      37.32
C       3.74      41.97      37.05
C       4.98      41.86      36.36
C       5.42      40.57      35.99
C       4.64      39.44      36.27
C       5.66      42.98      35.92
C       0.44      34.78      36.88
C       7.26      52.98      18.02
C       6.79      51.80      17.39
C       7.56      51.24      16.34
C       8.78      51.82      15.93
C       9.22      53.00      16.56
C       8.46      53.58      17.59
C       9.60      51.15      14.99
C       9.16      50.86      13.67
C       9.96      50.06      12.83
C      11.20      49.52      13.27
C      11.64      49.84      14.57
C      10.86      50.65      15.41
C      11.88      48.58      12.52
C       6.65      53.50      19.15
C      13.58      85.97      52.99
C      13.11      85.91      51.64
C      13.88      86.52      50.62
C      15.10      87.16      50.91
C      15.55      87.23      52.24
C      14.79      86.65      53.27
C      15.93      87.63      49.85
C      15.48      88.61      48.93
C      16.28      88.92      47.80
C      17.52      88.27      47.57
C      17.96      87.31      48.51
C      17.18      87.00      49.63
C      18.20      88.42      46.37
C      12.97      85.28      54.00
C       1.16      77.72      28.88
C       0.69      76.59      29.60
C       1.45      75.40      29.58
C       2.68      75.33      28.88
C       3.12      76.45      28.16
C       2.37      77.64      28.15
C       3.50      74.18      29.01
C       3.06      72.89      28.61
C       3.86      71.76      28.90
C       5.09      71.88      29.59
C       5.53      73.17      29.95
C       4.75      74.30      29.66
C       5.78      70.77      30.06
C       0.55      78.95      28.98
C       7.37      60.97      48.08
C       6.90      62.16      48.69
C       7.66      62.74      49.73
C       8.89      62.17      50.15
C       9.33      60.98      49.53
C       8.58      60.38      48.52
C       9.71      62.86      51.08
C       9.27      63.16      52.39
C      10.07      63.98      53.22
C      11.30      64.52      52.77
C      11.74      64.18      51.47
C      10.96      63.36      50.64
C      11.99      65.48      53.50
C       6.76      60.43      46.96
H      18.02      81.56      28.64
H      17.84      83.86      29.24
H       2.14      80.95      31.78
H       1.95      83.25      32.39
H       2.65      85.43      31.19
H       2.64      87.76      31.70
H      17.06      85.39      31.23
H      17.05      87.74      31.73
H       0.25      17.28      29.26
H       0.25      19.42      27.90
H       0.70      20.41      31.84
H       0.71      21.66      33.84
H       0.75      87.77      34.48
H       0.80      89.13      36.63
H       2.55      92.12      38.07
H       2.45      91.51      40.40
H      17.11      91.08      37.63
H      17.02      90.45      39.93
H       0.26      22.64      37.78
H       0.23      24.78      36.43
H       0.72      24.67      29.05
H       0.68      26.02      31.20
H      16.99      26.02      34.00
H      16.97      28.36      34.52
H       2.58      26.06      33.95
H       2.56      28.40      34.48
H       1.80      30.58      33.32
H       1.96      32.87      33.97
H      17.93      32.16      37.16
H      17.77      29.87      36.52
H       2.51      21.73      27.60
H       2.39      22.37      25.29
H      18.25      25.32      24.43
H      17.83      25.98      22.18
H       0.35      22.16      20.82
H       0.78      21.49      23.08
H      16.93      23.32      25.77
H      17.05      22.67      28.07
H      18.38      88.51      41.31
H      17.97      87.88      43.58
H       0.82      92.39      42.58
H       0.40      91.76      44.86
H       5.59      58.85      44.88
H       5.41      58.21      42.58
H       8.33      61.88      43.83
H       8.15      61.25      41.53
H       8.86      59.13      40.25
H       8.84      58.39      37.97
H       4.63      59.17      40.26
H       4.62      58.43      37.98
H       6.48      55.65      38.12
H       6.49      53.41      36.94
H       6.91      56.33      34.11
H       6.92      57.43      32.03
H       6.96      60.79      36.57
H       7.00      61.98      34.33
H       8.76      61.73      31.01
H       8.66      64.05      30.38
H       4.69      61.87      32.13
H       4.59      64.18      31.52
H       6.48      60.35      29.21
H       6.44      58.11      28.03
H       6.93      51.78      31.81
H       6.89      52.97      29.57
H       4.57      55.38      28.17
H       4.55      54.67      25.89
H       8.79      55.33      28.16
H       8.78      54.62      25.88
H       8.03      52.53      24.56
H       8.20      51.96      22.25
H       5.52      55.06      21.27
H       5.35      55.65      23.58
H       8.72      52.00      35.09
H       8.60      49.67      35.69
H       5.84      47.46      33.56
H       5.42      45.17      34.10
H       6.55      45.90      38.10
H       6.98      48.20      37.56
H       4.51      49.61      34.63
H       4.63      51.93      34.04
H       5.95      66.34      32.52
H       5.54      68.62      31.92
H       7.04      65.50      28.52
H       6.62      67.79      27.93
H      11.80      84.26      56.42
H      11.62      82.59      58.12
H      14.55      81.84      54.32
H      14.37      80.16      56.01
H      15.07      80.11      58.49
H      15.06      78.51      60.27
H      10.84      80.10      58.45
H      10.83      78.50      60.23
H      12.68      44.14       0.45
H      12.69      44.24       2.98
H      13.12      40.33       1.86
H      13.13      37.98       1.95
H      13.17      76.10      58.89
H      13.22      73.56      58.99
H      14.97      70.81      60.86
H      14.88      69.10      59.17
H      10.90      71.71      60.18
H      10.81      70.03      58.48
H      12.69      34.08       0.83
H      12.65      34.17       3.36
H      13.14      40.62       6.95
H      13.10      38.08       7.05
H      10.78      35.67       5.65
H      10.76      34.04       7.42
H      15.00      35.68       5.70
H      14.99      34.06       7.46
H      14.24      33.96       9.93
H      14.41      32.25      11.58
H      11.72      29.85       9.39
H      11.56      31.55       7.72
H      14.93      43.35       5.13
H      14.82      45.03       6.84
H      12.04      44.29       9.82
H      11.62      45.91      11.53
H      12.77      49.00       8.90
H      13.20      47.38       7.18
H      10.72      44.14       7.42
H      10.84      42.48       5.71
H      12.18      69.81      56.11
H      11.76      68.17      54.43
H      13.24      66.77      58.84
H      12.82      65.12      57.15
H      16.32      26.35      13.29
H      15.04      27.38      11.55
H      15.81      24.35      18.61
H       0.08      27.17      17.41
H      17.39      27.73      15.51
H      13.46      27.57      16.13
H      18.58      26.29      19.76
H      12.14      28.38      11.26
H       3.89      37.29      38.24
H       2.62      35.27      38.22
H       3.39      42.90      37.31
H       6.29      40.45      35.47
H       4.97      38.53      35.93
H       1.04      39.14      35.76
H       6.16      42.93      35.05
H      18.40      34.50      37.55
H      10.11      53.43      16.29
H       8.83      54.42      18.05
H       9.60      49.82      11.90
H      12.51      49.45      14.94
H      11.18      50.81      16.37
H       7.25      50.36      15.92
H      12.38      47.86      13.00
H       5.93      54.17      19.06
H      16.44      87.67      52.47
H      15.16      86.68      54.23
H      15.93      89.60      47.13
H       0.19      86.79      48.35
H      17.50      86.26      50.26
H      13.57      86.43      49.65
H       0.07      87.64      46.00
H      12.24      85.70      54.53
H       4.02      76.43      27.66
H       2.74      78.45      27.65
H       3.51      70.83      28.66
H       6.40      73.30      30.48
H       5.08      75.22      29.99
H       1.14      74.61      30.14
H       6.28      70.84      30.92
H      18.44      79.18      28.37
H      10.23      60.56      49.80
H       8.95      59.54      48.06
H       9.71      64.23      54.15
H      12.61      64.57      51.10
H      11.29      63.18      49.69
H       7.35      63.63      50.14
H      12.49      66.18      53.01
H       6.03      59.77      47.07
N       0.54      19.90      31.04
N       0.56      90.92      34.00
N       0.55      22.16      34.64
N       0.52      22.87      31.68
N      17.99      24.43      20.06
N       1.03      79.78      29.83
N      18.09      89.49      45.66
N       0.88      33.99      35.97
N       6.77      55.89      34.95
N       6.77      58.80      34.08
N       6.76      57.87      31.19
N       6.74      54.96      32.06
N       5.56      44.12      36.51
N       7.22      60.77      45.82
N       5.66      69.62      29.49
N       7.12      53.13      20.29
N      12.97      41.28       1.83
N      12.98      74.94      61.86
N      12.97      37.03       1.99
N      12.95      39.24       4.08
N      11.78      48.52      11.24
N      13.44      84.12      54.29
N      11.87      65.56      54.78
N      13.32      29.96      11.55
N      14.12      24.72      16.60
N      11.83      28.78      14.58
N       1.70      40.97      37.99
N      18.04      37.18      35.49
N       7.91      51.37      13.23
N       5.62      51.10      17.75
N      14.24      89.26      49.15
N      11.93      85.24      51.23
N       1.82      72.75      27.94
N      18.15      76.56      30.38
N       8.03      62.65      52.85
N       5.72      62.85      48.33
O      13.33      24.91      17.56
O      10.80      28.32      14.02
O      14.27      23.49      16.44
O      11.89      30.02      14.37
O       0.90      41.70      37.35
O      17.02      36.93      36.17
O       1.85      41.45      39.14
O      18.10      36.39      34.52
O       7.12      50.45      12.91
O       4.59      51.81      17.63
O       8.06      52.13      12.24
O       5.68      50.66      18.93
O      13.44      89.07      48.19
O      10.91      85.72      51.78
O      14.40      90.50      49.29
O      11.99      84.01      51.46
O       1.02      72.02      28.59
O      17.13      76.80      29.69
O       1.97      72.26      26.80
O      18.20      77.37      31.34
O       7.23      63.57      53.15
O       4.70      62.13      48.46
O       8.18      61.90      53.85
O       5.77      63.27      47.14
