20

C       4.23       4.41      14.95
O       1.77       5.66      14.55
C       6.09       6.09      14.71
C       4.33       8.21      14.73
H       6.78       5.25      14.70
H       3.64       9.04      14.73
C       4.70       5.83      14.76
C       6.60       7.40      14.68
C       5.70       8.48      14.73
C       6.12       9.92      14.85
O       7.33      10.22      14.95
C       8.08       7.62      14.50
O       5.13      10.76      14.93
O       8.91       7.55      15.45
O       8.46       7.84      13.29
O       1.68       7.92      14.55
O       3.95       4.07      16.16
O       4.16       3.57      14.01
C       3.81       6.92      14.74
C       2.31       6.78      14.63
