22

C       0.93       0.37       6.42
C       0.64      -0.95       6.71
C       1.69      -1.87       6.77
C       3.00      -1.41       6.54
C      -0.78      -3.33       9.12
C       3.20      -0.06       6.27
C       0.23      -3.10      10.07
H       0.14       1.11       6.33
H      -0.39      -1.26       6.86
H       3.86      -2.08       6.56
H       4.20       0.33       6.07
H       1.28      -3.13       9.79
C      -2.39      -2.99      10.87
C      -0.14      -2.84      11.38
H      -2.93      -3.42       8.83
C      -2.12      -3.27       9.54
H       0.62      -2.69      12.15
H      -3.41      -2.93      11.24
S       1.47      -3.60       7.12
S      -0.54      -3.78       7.43
N       2.18       0.83       6.20
N      -1.42      -2.79      11.80
