11

C      16.73      11.30      10.81
C      19.26      12.22       8.29
Zn      18.90       9.72       9.86
C      20.71       8.06      11.52
O      18.72       8.38       8.43
C      19.85       9.92      12.63
N      19.90      11.23       8.94
N      19.92       9.16      11.51
C      19.83       8.02       7.85
O      17.03      10.25      10.10
C      21.25      11.14       8.84
