12

C      12.77      12.77      20.15
C       8.44      11.72      20.26
N      11.15       9.00      21.33
Zn      11.01      10.27      19.66
O       9.07      10.71      19.82
O      12.19      11.68      20.48
C      11.75       9.14      17.58
O      12.62       9.73      18.32
O      10.53       9.05      17.98
C       9.91       8.20      21.48
C      11.35       9.79      22.60
C      12.31       8.07      21.18
