312

C       0.21      66.63       1.75
C       0.21      34.33      57.06
C       0.21       2.69       1.39
C       0.32      35.47      56.22
C       0.20      35.36      54.81
C       9.84      34.11      54.19
C       9.74      32.98      55.03
C       9.87      33.08      56.42
C       0.31      65.33       1.19
C       0.20      64.17       1.98
C       9.84      64.26       3.37
C       9.74      65.55       3.94
C       9.88      66.71       3.15
C       0.32       2.85       2.79
C       0.21       4.11       3.41
C       9.84       5.27       2.64
C       9.74       5.12       1.23
C       9.87       3.86       0.62
C       0.27       1.40       0.76
C       0.26      67.81       0.94
C       0.26      34.44      58.49
C       9.60       6.52       3.22
C       9.60      33.99      52.82
C       9.60      63.14       4.17
C       0.15      22.45      15.93
C       0.27      19.76      11.83
C       0.06      24.69      11.72
C       0.13      19.62      10.42
C       0.25      18.36       9.79
C       0.54      17.19      10.54
C       0.67      17.33      11.94
C       0.53      18.58      12.57
C       9.61      21.41      16.78
C       9.49      21.62      18.18
C       9.82      22.86      18.76
C       0.41      23.89      17.91
C       0.51      23.69      16.52
C       9.48      25.85      12.41
C       9.60      27.13      11.85
C       0.30      27.31      10.57
C       0.72      26.16       9.86
C       0.59      24.87      10.42
C       0.08      23.43      12.39
C       0.15      22.31      14.51
C       0.19      21.04      12.48
C       0.56      28.59      10.08
C       0.77      15.96       9.94
C       9.60      23.11      20.11
C       0.15      44.21      11.70
C       0.27      49.10      11.42
C       0.06      46.73      15.74
C       0.13      50.39      11.99
C       0.26      51.57      11.22
C       0.54      51.50       9.83
C       0.67      50.22       9.25
C       0.53      49.05      10.02
C       9.61      43.99      10.37
C       9.49      42.68       9.85
C       9.82      41.55      10.64
C       0.40      41.77      11.96
C       0.50      43.07      12.48
C       9.47      45.56      16.40
C       9.59      45.41      17.79
C       0.30      46.41      18.59
C       0.73      47.60      17.94
C       0.59      47.76      16.55
C       0.08      46.79      14.31
C       0.15      45.51      12.29
C       0.19      47.90      12.20
C       0.56      46.20      19.94
C       0.78      52.63       9.06
C       9.60      40.26      10.17
C       0.15      36.99      32.66
C       0.27      34.79      37.05
C       0.06      32.23      32.83
C       0.13      33.64      37.87
C       0.25      33.72      39.28
C       0.54      34.95      39.91
C       0.67      36.10      39.10
C       0.53      36.02      37.70
C       9.61      38.25      33.14
C       9.49      39.35      32.26
C       9.82      39.23      30.89
C       0.40      37.98      30.43
C       0.50      36.88      31.30
C       9.47      32.24      31.49
C       9.59      31.12      30.66
C       0.30      29.92      31.13
C       0.73      29.89      32.48
C       0.59      31.02      33.32
C       0.08      33.44      33.59
C       0.15      35.83      33.50
C       0.19      34.71      35.62
C       0.56      28.86      30.27
C       0.78      35.05      41.28
C       9.60      40.28      30.00
C       0.23       8.13       4.89
C       1.38       8.74       5.45
C       0.12      10.60       6.28
C       8.79      10.03       5.78
C       8.87       8.79       5.09
C       0.09      11.83       6.97
C       1.26      13.57       8.13
C       0.07      14.30       8.37
C       8.75      13.75       7.86
C       8.73      12.52       7.16
C       7.54      11.95       6.66
C       7.57      10.71       5.97
C       0.23      60.88       4.74
C       1.38      60.10       4.99
C       0.12      58.46       6.20
C       8.79      59.18       5.96
C       8.87      60.39       5.22
C       0.09      57.25       6.94
C       1.26      55.38       7.87
C       0.07      54.82       8.39
C       8.75      55.53       8.17
C       8.73      56.75       7.44
C       7.54      57.47       7.20
C       7.57      58.68       6.47
C       0.23      34.63      50.59
C       1.38      34.80      49.79
C       0.12      34.59      47.76
C       8.79      34.43      48.50
C       8.87      34.46      49.92
C       0.09      34.56      46.34
C       1.26      34.70      44.26
C       0.07      34.54      43.51
C       8.75      34.37      44.24
C       8.73      34.38      45.65
C       7.54      34.23      46.40
C       7.57      34.26      47.81
C       0.07      30.93      10.30
C       8.82      31.75      10.44
C       0.24      33.75      10.20
C       1.43      32.98      10.06
C       1.32      31.57      10.11
C       0.30      35.16      10.21
C       9.04      37.25      10.42
C       0.37      37.97      10.33
C       1.57      37.23      10.19
C       1.55      35.82      10.10
C       2.73      35.06       9.94
C       2.67      33.64       9.92
C       0.07      44.83      21.86
C       8.82      44.30      22.50
C       0.24      43.51      24.34
C       1.43      44.01      23.75
C       1.32      44.67      22.50
C       0.30      42.80      25.56
C       9.04      41.57      27.27
C       0.37      41.29      27.94
C       1.57      41.78      27.37
C       1.55      42.56      26.19
C       2.73      43.08      25.60
C       2.67      43.80      24.39
C       0.07      27.88      28.12
C       8.81      27.60      27.34
C       0.24      26.39      25.74
C       1.43      26.66      26.47
C       1.32      27.41      27.67
C       0.30      25.69      24.51
C       9.04      24.83      22.59
C       0.37      24.39      22.01
C       1.57      24.64      22.72
C       1.55      25.27      23.99
C       2.73      25.52      24.73
C       2.67      26.20      25.96
H       9.56      32.05      54.62
H       9.77      32.23      56.98
H       9.78      -1.20       3.61
H       0.46      65.21       0.18
H       0.25      63.25       1.52
H       9.56      65.66       4.94
H       0.47       2.03       3.40
H       9.55       5.94       0.64
H       9.77     -30.61      59.32
H       0.26       4.17       4.43
H       0.47     -32.41      56.62
H       0.26      36.22      54.25
H       8.93      63.23       4.90
H       8.93      33.31      52.53
H       8.93       7.11       2.78
H       0.89      16.51      12.52
H       0.66      18.61      13.58
H       0.82      24.48      15.95
H       9.32      20.51      16.40
H       9.13      20.85      18.76
H       0.63      24.82      18.28
H       9.08      25.78      13.35
H       1.16      26.25       8.94
H       0.96      24.07       9.90
H       9.30      27.93      12.41
H       9.82      20.44       9.84
H       0.17      18.31       8.77
H       8.82      22.67      20.56
H       1.52      15.41      10.29
H       1.29      28.71       9.41
H       0.89      50.12       8.26
H       0.66      48.15       9.55
H       0.81      43.17      13.45
H       9.32      44.78       9.78
H       9.14      42.56       8.90
H       0.62      40.99      12.58
H       9.07      44.79      15.87
H       1.18      48.35      18.48
H       0.97      48.61      16.11
H       9.29      44.52      18.20
H       9.83      50.49      12.99
H       0.18      52.48      11.68
H       8.82      40.09       9.57
H       1.53      52.60       8.41
H       1.29      46.71      20.38
H       0.89      37.01      39.52
H       0.66      36.88      37.16
H       0.82      35.99      30.90
H       9.32      38.37      34.11
H       9.14      40.24      32.63
H       0.63      37.84      29.44
H       9.07      33.09      31.08
H       1.18      29.05      32.86
H       0.97      30.97      34.27
H       9.29      31.21      29.68
H       9.82      32.73      37.46
H       0.17      32.86      39.83
H       8.83      40.90      30.16
H       1.53      35.63      41.58
H       1.29      28.22      30.49
H       8.02       8.36       4.73
H       2.30       8.30       5.35
H       7.88      14.26       8.01
H       2.16      13.92       8.45
H       6.19      13.14       6.08
H       6.26      10.52       4.62
H       8.02      60.92       5.03
H       2.29      60.40       4.65
H       7.88      55.15       8.54
H       2.17      54.93       8.01
H       6.20      57.39       8.53
H       6.27      59.95       6.98
H       8.02      34.36      50.47
H       2.30      34.94      50.22
H       7.88      34.24      43.72
H       2.17      34.80      43.79
H       6.19      33.13      45.66
H       6.26      33.18      48.65
H       2.17      30.99      10.07
H       7.89      31.35      10.62
H       2.46      37.74      10.16
H       8.15      37.73      10.59
H       4.11      35.83       8.91
H       3.98      32.79       8.86
H       2.17      45.00      22.02
H       7.89      44.35      22.06
H       2.46      41.55      27.82
H       8.15      41.19      27.61
H       4.12      43.59      26.79
H       3.98      45.15      24.18
H       2.17      27.66      28.19
H       7.89      27.95      27.61
H       2.46      24.36      22.30
H       8.15      24.73      22.09
H       4.12      24.24      24.58
H       3.98      25.72      27.24
N       0.26       0.25       1.49
N       0.26      33.33      59.29
N       0.26     -33.17      59.12
N       0.10      23.43      13.74
N       0.19      21.12      13.84
N       0.15      22.21      11.77
N       0.09      45.61      13.64
N       0.19      46.68      11.59
N       0.15      47.93      13.57
N       0.09      34.61      32.91
N       0.19      35.85      34.86
N       0.15      33.51      34.95
N       1.29       9.92       6.10
N       1.23      12.39       7.46
N       0.36       6.96       4.25
N       0.02      15.47       9.02
N       1.29      58.95       5.70
N       1.23      56.55       7.18
N       0.35      62.02       4.04
N       0.02      53.67       9.08
N       1.29      34.77      48.43
N       1.23      34.71      45.61
N       0.36      34.66      51.92
N       0.02      34.51      42.17
N       8.93      33.10      10.38
N       9.05      35.90      10.37
N       9.82      29.63      10.52
N       0.45      39.28      10.56
N       8.93      43.67      23.69
N       9.05      42.29      26.13
N       9.82      45.29      20.62
N       0.45      40.44      28.96
N       8.93      26.87      26.20
N       9.05      25.46      23.79
N       9.82      28.73      29.14
N       0.45      23.94      20.77
O       6.33      12.55       6.86
O       6.39      10.18       5.53
O       6.34      57.00       7.64
O       6.39      59.32       6.23
O       6.34      34.09      45.78
O       6.40      34.14      48.49
O       3.95      35.66       9.87
O       3.84      32.94       9.82
O       3.95      42.84      26.16
O       3.84      44.24      23.83
O       3.95      25.15      24.25
O       3.84      26.47      26.62
