27

C       1.37       9.83      10.23
C       1.66      10.63       9.07
C       2.95      11.25       8.87
C       3.11      12.08       7.73
C       2.10      12.22       6.78
C       0.86      11.55       6.96
C       0.65      10.80       8.09
C       2.31      13.07       5.58
C       1.30      13.94       5.15
C       1.49      14.77       4.04
C       2.73      14.76       3.36
C       3.74      13.87       3.79
C       3.53      13.03       4.87
C       2.98      15.66       2.22
H       4.04      12.62       7.64
H       0.09      11.63       6.20
H      -0.31      10.32       8.26
H       0.36      14.03       5.70
H       4.68      13.87       3.26
H       4.30      12.33       5.18
H       0.79      16.17       2.98
O       0.24       9.24      10.40
O       2.24       9.68      11.18
O       4.01      15.49       1.46
O       2.13      16.62       2.03
O       3.97      11.08       9.68
O       0.44      15.55       3.67
