11

Cu       4.21       8.60       8.60
N       6.45      10.32       9.53
N       5.36      10.22       8.75
C       5.27      11.34       8.03
C       3.68       9.04       5.91
O       3.30       9.53       7.05
N       1.97       6.87       7.67
N       3.06       6.98       8.45
O       5.12       7.67      10.15
C       3.15       5.86       9.17
C       4.74       8.16      11.29
