138

Mn       8.88       4.77       4.08
Mn       4.80      -0.75       6.45
Mn      -3.25       2.86      16.99
Mn       0.83       8.38      14.62
Mn       7.02       1.88       5.27
Mn      -1.38       5.75      15.80
H       5.79       6.23       1.65
H       4.27       2.52       1.96
H       2.89       2.90       0.15
H       8.60       2.51       8.24
H      -3.15       6.49       8.41
H      -3.22       6.41      10.70
H       4.18       9.10       9.90
H      -0.88      -0.05       7.44
H       0.78      -0.60       8.93
H       2.50       1.77       8.89
H       5.60       4.32       8.58
H       4.83       5.52      10.39
H       6.88       0.18       2.30
H      -0.38      10.24       2.13
H      -2.56       7.31      20.90
H      -0.72       2.47       0.64
H       6.54       9.99       3.10
H       7.55       8.57       1.61
H      -0.16       1.40      19.42
H       1.37       5.11      19.12
H       2.74       4.73      20.92
H      -2.96       5.12      12.83
H       8.78       1.13      12.66
H       8.86       1.21      10.37
H       1.45      -1.47      11.17
H       6.52       7.67      13.64
H       4.86       8.23      12.14
H       3.13       5.86      12.18
H       0.04       3.31      12.49
H       0.80       2.10      10.68
H      -1.24       7.45      18.77
H       6.01      -2.61      18.94
H       8.19       0.31       0.17
H       6.35       5.16      20.43
H      -0.90      -2.37      17.97
H      -1.92      -0.95      19.47
C       4.37       5.83       0.22
C       5.21       5.56       1.34
C       5.17       4.35       1.97
C       4.29       3.35       1.52
C       3.47       3.57       0.44
C       6.10       4.08       3.13
C       8.49       3.22      10.16
C       8.48       3.29       8.75
C       8.30       4.49       8.11
C      -3.03       5.67       8.85
C      -3.06       5.62      10.22
C       8.39       4.57       6.62
C       6.08       8.99      10.68
C       8.35      -1.34       9.72
C       8.68      -0.73       8.54
C      10.03      -0.45       8.25
C      -0.12      -0.77       9.15
C       7.60      -0.27       7.59
C       2.47       3.24      10.31
C       2.97       2.53       9.20
C       4.11       2.92       8.56
C       4.81       4.05       9.02
C       4.35       4.77      10.09
C       4.65       2.11       7.40
C       6.17       0.08       0.37
C       6.10       0.06       1.79
C       4.90      -0.12       2.42
C       0.44      10.37       1.68
C       0.48      10.41       0.32
C       4.84      -0.22       3.91
C      -2.29      -2.33      20.92
C      10.48       1.55       0.82
C       9.99       1.05       1.99
C      10.13      -0.32       2.28
C       7.45       9.48       1.39
C       9.24       1.95       2.95
C       1.26       1.80      20.85
C       0.43       2.07      19.73
C       0.46       3.28      19.10
C       1.34       4.28      19.55
C       2.16       4.05      20.63
C      -0.46       3.55      17.94
C      -2.86       4.41      10.91
C      -2.85       4.34      12.32
C      -2.67       3.14      12.96
C       8.67       1.96      12.22
C       8.70       2.00      10.85
C      -2.75       3.05      14.45
C      -0.44      -1.36      10.39
C      -2.72       8.96      11.35
C      -3.04       8.35      12.53
C      -4.39       8.08      12.82
C       5.76       8.40      11.93
C      -1.96       7.90      13.48
C       3.17       4.38      10.76
C       2.67       5.10      11.87
C       1.52       4.71      12.51
C       0.82       3.58      12.05
C       1.28       2.86      10.98
C       0.99       5.51      13.67
C      -0.53       7.55      20.70
C      -0.46       7.56      19.28
C       0.73       7.75      18.65
C       5.20      -2.75      19.39
C       5.16      -2.79      20.75
C       0.79       7.85      17.16
C       7.92       9.96       0.15
C      -4.85       6.08      20.26
C      -4.36       6.57      19.08
C      -4.50       7.94      18.79
C      -1.82      -1.85      19.68
C      -3.61       5.67      18.12
O       5.96       2.99       3.74
O       6.93       4.97       3.40
O       8.33       3.51       5.92
O      -2.57       5.68       6.09
O       7.96       0.49       6.66
O       6.43      -0.68       7.80
O       5.64       2.56       6.80
O       4.03       1.05       7.14
O       5.84       0.14       4.61
O       0.56       9.92       4.45
O       8.62       1.39       3.87
O       9.29       3.19       2.74
O      -0.33       4.64      17.33
O      -1.30       2.65      17.67
O      -2.70       4.12      15.15
O       8.21       1.94      14.98
O      -2.32       7.13      14.41
O      -0.80       8.31      13.27
O      -0.01       5.07      14.27
O       1.60       6.58      13.94
O      -0.21       7.49      16.46
O       5.07      -2.30      16.63
O      -2.98       6.24      17.20
O      -3.66       4.44      18.33
