22

F      13.45       7.09      17.05
F      13.18       7.39      19.69
F      12.94       0.30      20.68
H      13.64       2.65      21.44
H      12.76       2.14      16.62
F      12.53       0.02      17.98
C      14.24       4.60      15.99
C      13.16       5.26      21.48
C      13.46       5.03      20.08
C      13.61       4.72      17.30
C      13.48       3.73      19.54
C      13.40       3.58      18.14
C      13.48       5.99      17.85
C      13.38       6.14      19.21
C      13.46       2.59      20.37
C      13.06       2.30      17.64
C      13.14       1.34      19.85
C      12.92       1.21      18.49
O      15.05       5.51      15.54
O      13.56       6.36      21.96
O      14.13       3.46      15.46
O      12.27       4.52      22.04
