22

F      10.25       3.81      17.06
F      10.62       3.88      19.71
H       6.31       5.97      21.40
F       4.66       7.78      20.62
H       6.40       6.98      16.58
F       4.67       8.26      17.91
C       7.73       4.42      15.98
C       8.79       5.01      21.48
C       8.45       4.87      20.07
C       8.15       4.90      17.30
C       7.34       5.54      19.52
C       7.27       5.68      18.12
C       9.29       4.35      17.85
C       9.46       4.36      19.22
C       6.36       6.15      20.34
C       6.37       6.65      17.60
C       5.47       7.07      19.80
C       5.49       7.32      18.44
O       8.09       3.25      15.54
O       9.53       4.10      21.96
O       6.80       5.09      15.46
O       8.61       6.15      22.04
