22

H      11.88       3.60      10.95
H      11.40       3.99       8.51
H      15.45       6.66       7.47
H      14.01       7.62      12.10
H      16.71       8.13       8.89
H      16.03       8.63      11.21
C      12.38       4.38      10.40
C      12.17       4.56       9.01
C      15.05       6.88       8.45
C      14.29       7.42      11.07
C      15.81       7.73       9.26
C      15.42       8.01      10.56
C      14.15       4.70      12.21
C      12.82       5.56       6.80
C      13.04       5.38       8.26
C      13.31       5.18      11.06
C      13.93       6.22       8.99
C      13.74       6.33      10.38
O      15.08       5.52      12.53
O      13.61       6.41       6.22
O      14.14       3.48      12.67
O      12.35       4.55       6.08
