16

C       9.08      10.81       1.43
C       9.73      11.93       2.25
C       9.07      12.04       3.62
C       7.56      12.32       3.45
C       6.99      11.22       2.54
O       9.36       9.52       1.94
O      11.16      11.70       2.38
O       9.65      13.13       4.36
O       7.34      13.62       2.99
O       7.69      11.09       1.28
H       9.48      10.83       0.40
H       9.62      12.88       1.72
H       9.20      11.10       4.18
H       7.10      12.15       4.45
H       6.99      10.25       3.06
H       5.95      11.46       2.27
