252

C      14.96      14.51       4.62
C      14.17      14.30       5.80
C      14.31      13.10       6.56
C      15.21      12.12       6.08
C       0.75      12.29       4.94
C       0.61      13.50       4.20
C      13.36      15.36       6.25
C       1.33      13.71       3.01
C      14.85      15.75       3.89
C      13.98      16.79       4.34
C      13.90      18.03       3.63
C      14.72      18.20       2.49
C       0.33      17.19       2.02
C       0.39      15.96       2.72
C      13.28      16.57       5.55
C       1.23      14.91       2.29
C       4.78       5.47       4.76
C       4.00       6.59       4.36
C       4.13       7.85       5.02
C       5.04       7.93       6.10
C       5.83       6.85       6.52
C       5.70       5.61       5.84
C       3.18       6.45       3.21
C       6.42       4.47       6.26
C       4.68       4.22       4.05
C       3.81       4.09       2.93
C       3.72       2.85       2.21
C       4.55       1.77       2.63
C       5.42      27.64       3.74
C       5.48       3.10       4.46
C       3.10       5.24       2.51
C       6.32       3.25       5.58
C       9.87      10.11      12.53
C       9.08       9.20      11.75
C       9.22       9.14      10.33
C      10.13      10.04       9.72
C      10.92      10.95      10.45
C      10.79      10.98      11.86
C       8.27       8.28      12.45
C      11.51      11.91      12.64
C       9.76      10.12      13.96
C       8.89       9.21      14.64
C       8.81      34.98      16.07
C       9.63      10.11      16.79
C      10.51      11.02      16.15
C      10.56      11.03      14.73
C       8.19       8.28      13.84
C      11.41      11.93      14.03
C      14.96      18.43      17.42
C      14.17      18.64      16.24
C      14.31      19.85      15.49
C      15.21      20.82      15.97
C       0.74      20.65      17.11
C       0.61      19.44      17.85
C      13.36      17.58      15.79
C       1.33      19.23      19.04
C      14.85      17.19      18.15
C      13.98      16.15      17.70
C      13.90      14.91      18.42
C      14.72      14.74      19.56
C       0.33      15.74      20.02
C       0.39      16.98      19.32
C      13.28      16.37      16.49
C       1.23      18.03      19.75
C       4.78      27.47      17.29
C       4.00      26.35      17.69
C       4.14      25.09      17.03
C       5.04      25.01      15.94
C       5.84      26.09      15.52
C       5.70      27.33      16.20
C       3.19      26.49      18.83
C       6.42      28.47      15.78
C       4.68      28.72      17.99
C       3.81      28.85      19.12
C       3.72      30.09      19.83
C       4.54      31.17      19.41
C       5.42      31.07      18.31
C       5.48      29.84      17.58
C       3.10      27.70      19.53
C       6.32      29.69      16.46
C       9.87      22.83       9.52
C       9.09      23.74      10.29
C       9.23      23.80      11.71
C      10.13      22.90      12.32
C      10.93      21.99      11.60
C      10.79      21.96      10.18
C       8.27      24.67       9.60
C      11.51      21.03       9.40
C       9.77      22.82       8.08
C       8.90      23.73       7.41
C       8.81      23.73       5.98
C       9.63      22.83       5.26
C      10.51      21.92       5.90
C      10.57      21.91       7.32
C       8.19      24.66       8.20
C      11.41      21.01       8.01
C       2.88      30.28      20.98
C       3.38      30.72      22.23
C       2.55      17.87       1.06
C       1.19      17.47       0.91
C       7.97      24.63       5.24
C       8.47      25.49       4.24
C       7.64      26.47       3.63
C       6.28      26.54       4.05
C      13.06      13.82      18.01
C      13.56      12.52      17.76
C      12.73      11.51      17.21
C      11.37      11.83      16.95
C       2.88       2.66       1.06
C       3.38      15.11      22.13
C       2.55      15.07      20.98
C       1.19      15.46      21.13
C       7.97      34.08      16.81
C       8.47      33.21      17.81
C       7.64      32.23      18.41
C       6.28      32.17      17.99
C      13.06      19.12       4.04
C      13.56      20.42       4.28
C      12.73      21.43       4.83
C      11.37      21.11       5.10
C      13.56      12.76       7.72
C      14.11      12.05       8.82
C      13.29      11.48       9.82
C      11.88      11.67       9.69
C       3.38       9.02       4.74
C       3.93      10.33       4.79
C       3.11      11.48       4.78
C       1.70      11.28       4.69
C       8.47       8.31       9.46
C       9.02       7.71       8.30
C       8.20       7.12       7.30
C       6.79       7.15       7.52
C      13.56      20.19      14.33
C      14.11      20.89      13.23
C      13.29      21.46      12.23
C      11.89      21.28      12.35
C       3.39      23.92      17.31
C       3.93      22.61      17.25
C       3.11      21.46      17.26
C       1.71      21.66      17.35
C       8.47      24.63      12.59
C       9.02      25.23      13.75
C       8.20      25.82      14.74
C       6.80      25.79      14.52
H       0.03      11.23       6.60
H      14.69      19.09       1.97
H      12.71      17.31       5.98
H      12.85      15.30       7.14
H       1.80      14.99       1.45
H       1.96      12.99       2.63
H       5.12       8.82       6.61
H       4.51      26.65       2.12
H       2.53       5.24       1.66
H       2.67       7.25       2.82
H       6.89      28.24       5.93
H       7.05       4.51       7.07
H      10.21      10.04       8.70
H       9.60      35.88      17.81
H       7.62      33.31      14.27
H       7.76       7.54      11.95
H      11.98      12.61      14.53
H      12.14      12.59      12.20
H       0.03      21.71      15.45
H      14.69      13.85      20.07
H      12.71      15.64      16.07
H      12.85      17.64      14.91
H       1.80      17.94      20.60
H       1.96      19.95      19.41
H       5.13      24.12      15.43
H       4.51      32.06      19.92
H       2.54      27.70      20.38
H       2.68      25.69      19.22
H       6.89      30.46      16.11
H       7.05      28.43      14.97
H      10.22      22.90      13.35
H       9.60      22.83       4.23
H       7.62      25.40       7.78
H       7.76      25.40      10.09
H      11.98      20.33       7.51
H      12.14      20.35       9.84
H       4.01      18.50       2.34
H       2.54      18.28       3.06
H       4.37      18.06       0.00
H       9.10       1.50       2.45
H       7.63       2.24       2.28
H       9.47      25.46       4.00
H      14.19      10.09      17.12
H      12.72       9.57      16.57
H      14.55      12.33      17.91
H       4.01      14.44      19.70
H       2.54      14.66      18.98
H       4.38      14.88      22.04
H       9.10      31.45      19.59
H       7.63      30.71      19.77
H       9.46      33.25      18.05
H      14.19      22.85       4.93
H      12.72      23.37       5.48
H      14.55      20.61       4.13
H      14.84      10.55      10.77
H      13.35      10.17      11.39
H      15.13      11.92       8.87
H       4.66      12.77       5.11
H       3.17      13.49       5.14
H       4.95      10.44       4.88
H       9.75       6.76       6.02
H       8.26       6.43       5.38
H      10.04       7.73       8.16
H      14.84      22.39      11.27
H      13.36      22.77      10.65
H      15.13      21.02      13.18
H       4.66      20.16      16.93
H       3.17      19.45      16.91
H       4.95      22.50      17.16
H       9.75      26.18      16.02
H       8.27      26.52      16.66
H      10.04      25.21      13.89
N       0.78      29.97      21.99
N       1.56      29.95      20.95
N       3.08      18.23       2.26
N       5.87      25.67       5.00
N       6.65      24.77       5.55
N       8.17      27.33       2.72
N      10.95      13.10      17.23
N      11.74      14.02      17.73
N      13.26      10.29      16.93
N       0.78       2.97       0.05
N       1.56       2.99       1.10
N       3.08      14.71      19.78
N       5.86      33.04      17.04
N       6.65      33.94      16.50
N       8.17      31.38      19.32
N      10.95      19.84       4.82
N      11.74      18.92       4.31
N      13.26      22.65       5.12
N      11.44      12.35       8.60
N      12.21      12.87       7.69
N      13.88      10.70      10.76
N       1.26       9.99       4.65
N       2.03       8.94       4.65
N       3.70      12.69       4.99
N       6.35       7.75       8.66
N       7.12       8.28       9.57
N       8.79       6.70       6.15
N      11.44      20.59      13.44
N      12.21      20.07      14.36
N      13.88      22.25      11.29
N       1.26      22.95      17.40
N       2.03      24.00      17.39
N       3.70      20.25      17.05
N       6.35      25.19      13.38
N       7.12      24.66      12.48
N       8.79      26.24      15.89
