42

Mg       2.24      14.13       1.49
Mg       3.93      14.89       4.42
O       4.00      15.78       6.47
Mg       4.31      14.41       7.78
O       5.24      13.34       5.04
Mg       0.99      12.56      -6.23
O       4.59      12.63       7.10
O       5.37      16.46       4.85
Mg       2.67      11.79      -9.16
Mg       0.61      12.07      -2.86
O       1.00      13.63      -0.00
O      -0.40      12.44      -1.29
O       4.20      14.50       2.46
O       4.01      13.48       0.51
O       0.92      13.45      -4.17
O      -0.32      11.01      -5.60
O       0.33      10.30      -3.54
O      -0.45      14.13      -5.79
O       3.93      15.96      10.64
O       5.32      14.77       9.36
O       0.72      12.17      -8.18
O       0.91      11.15     -10.13
O       3.34      13.62      -8.71
O       2.48      11.21      -5.79
O       2.30      14.05      -6.73
O       3.28      10.50      -7.79
C       1.83      16.67       2.96
C       1.89      12.68       4.10
C       4.75      13.92       1.45
C      -0.16      13.17      -0.25
C       4.87      16.66       5.99
C       5.14      12.45       5.93
C       0.17      11.59      -9.20
C       5.08      15.50      10.39
C       0.05      14.33      -4.65
C      -0.22      10.12      -4.71
C       3.09      14.34      -7.68
C       3.03      10.35      -6.54
O       1.58      15.95       1.93
O       2.44      13.54       4.85
O       2.62      16.38       3.92
O       1.64      12.83       2.85
