14

O       5.88       8.10       2.35
O       4.41       6.67       3.32
O       6.58       3.05       6.31
O       8.34       3.83       7.48
C       5.54       7.13       3.14
C       6.69       6.48       3.90
C       6.48       5.48       4.85
C       7.63       5.01       5.51
H       5.49       5.08       5.06
N       7.92       6.92       3.60
C       8.95       6.42       4.31
C       7.52       3.89       6.52
N       8.85       5.50       5.27
H       9.94       6.79       4.07
