14

O       5.15      15.51      11.00
O       3.60      16.85      11.98
H       4.66      18.54      13.70
N       8.03      18.17      13.90
H       9.16      16.88      12.72
N       7.13      16.74      12.25
C       4.76      16.46      11.79
C       5.89      17.15      12.55
C       5.67      18.16      13.49
C       6.81      18.65      14.15
C       6.67      19.79      15.15
C       8.16      17.25      12.95
O       7.48      19.85      16.11
O       5.73      20.59      14.88
