14

C       0.32       8.53      14.18
C      -0.83       9.20      13.41
C      -0.61      10.20      12.45
C      -1.75      10.68      11.78
C      -1.63      11.78      10.73
C      -3.10       9.27      12.98
H       0.39      10.57      12.25
H      -4.11       8.90      13.19
N      -2.07       8.77      13.70
N      -2.97      10.19      12.02
O      -0.02       7.63      15.04
O       1.47       8.90      13.91
O      -0.71      12.63      10.97
O      -2.44      11.81       9.76
