27

C      -3.17       8.75       0.84
C      -4.40       7.96       1.14
C      -4.71       6.81       0.40
C      -5.91       6.14       0.60
C      -6.81       6.62       1.56
C      -6.51       7.74       2.34
C      -5.30       8.40       2.12
C      -8.93       6.20       2.63
C     -10.20       6.69       2.30
C     -11.20       6.69       3.27
C     -10.93       6.20       4.56
C      -9.63       5.79       4.89
C      -8.62       5.80       3.93
C     -12.06       6.00       5.53
O      -2.36       8.36      -0.07
O      -3.00       9.84       1.49
O      -8.04       6.00       1.58
O      -3.65       6.50       5.25
O     -11.85       5.27       6.56
H      -4.00       6.47      -0.36
H      -6.18       5.27       0.01
H      -7.22       8.10       3.08
H      -5.05       9.29       2.70
H     -10.40       7.05       1.29
H     -12.20       7.04       3.04
H      -9.40       5.43       5.89
H      -7.61       5.46       4.17
