624

C      15.68       6.03       8.96
C      16.38       6.22       7.73
C      16.38       7.43       6.99
C      15.67       8.53       7.51
C      14.95       8.43       8.73
C      14.98       7.20       9.42
C      15.68       4.75       9.70
C      16.37       3.58       9.24
C      16.38       2.33       9.92
C      15.67       2.24      11.14
C      14.96       3.34      11.67
C      14.99       4.56      10.95
C      -3.17      10.42      19.52
C      -2.48       9.25      19.06
C      -2.46       8.01      19.75
C      -3.16       7.91      20.98
C      -3.87       9.02      21.50
C      -3.87      10.23      20.76
C      -3.17      11.70      18.78
C      -2.48      11.88      17.54
C      -2.45      13.10      16.82
C      -3.16      14.21      17.34
C      -3.88      14.11      18.56
C      -3.87      12.86      19.24
C      23.09      16.51       8.96
C      21.76      16.77       9.42
C      20.58      16.39       8.73
C      20.73      15.69       7.51
C      22.01      15.39       6.98
C      23.15      15.80       7.72
C     -10.58      16.94       9.70
C     -10.64      17.66      10.94
C      -9.50      18.09      11.66
C      -8.22      17.79      11.14
C      -8.08      17.08       9.93
C      -9.25      16.67       9.24
C     -10.58      -0.07      19.52
C     -10.64       0.65      20.76
C      -9.50       1.06      21.49
C      -8.22       0.76      20.97
C      -8.08       0.05      19.75
C      -9.25      -0.34      19.06
C      23.09      -0.50      18.78
C      21.76      -0.23      19.24
C      20.58      -0.64      18.56
C      20.73      -1.34      17.34
C      22.01      -1.64      16.81
C      23.15      -1.21      17.54
C       4.05      22.11       0.74
C       4.75      23.09       1.52
C       4.75      23.12       2.94
C       4.04      22.12       3.63
C       3.33      21.11       2.94
C       3.35      21.13       1.52
C      -7.58       5.67      27.74
C      -6.89       6.65      26.96
C      -6.88       6.68      25.54
C      -7.59       5.68      24.85
C      -8.30       4.67      25.54
C      -8.27       4.68      26.96
C       8.46      -5.67      27.74
C       9.15      -4.68      26.96
C       9.17      -4.67      25.54
C       8.47      -5.68      24.85
C       7.75      -6.68      25.54
C       7.76      -6.65      26.96
C      20.08      10.78       0.74
C      20.78      11.76       1.52
C      20.81      11.78       2.94
C      20.10      10.77       3.64
C      19.38       9.76       2.94
C      19.39       9.80       1.52
C      11.46      16.87       9.82
C      10.13      16.34       9.82
C       8.96      17.14       9.83
C       9.10      18.55       9.83
C      10.38      19.15       9.83
C      11.52      18.31       9.82
C      12.67      16.02       9.82
C      12.61      14.58       9.82
C      13.75      13.74       9.83
C      15.03      14.34       9.83
C      15.18      15.75       9.83
C      14.00      16.55       9.81
C       1.05      -0.43      18.66
C       0.99      -1.86      18.67
C       2.13      -2.70      18.66
C       3.41      -2.10      18.65
C       3.55      -0.69      18.65
C       2.38       0.11      18.66
C      -0.17       0.43      18.66
C      -1.50      -0.10      18.66
C      -2.67       0.69      18.65
C      -2.53       2.10      18.65
C      -1.25       2.70      18.65
C      -0.11       1.86      18.67
C      -7.58      21.19      18.78
C      -6.88      20.03      19.24
C      -6.88      18.78      18.56
C      -7.59      18.68      17.34
C      -8.30      19.79      16.81
C      -8.28      21.01      17.54
C       4.05     -10.41      19.52
C       4.74     -10.23      20.76
C       4.75      -9.02      21.50
C       4.04      -7.91      20.98
C       3.33      -8.01      19.75
C       3.36      -9.25      19.06
C      20.08      -4.75       9.70
C      20.77      -4.56      10.95
C      20.80      -3.34      11.67
C      20.09      -2.24      11.14
C      19.38      -2.34       9.92
C      19.39      -3.58       9.24
C       8.46      26.86       8.96
C       9.15      25.69       9.42
C       9.18      24.46       8.73
C       8.47      24.36       7.51
C       7.75      25.46       6.99
C       7.76      26.67       7.72
C      -0.17      15.95       9.70
C      -1.50      16.22       9.25
C      -2.67      15.81       9.93
C      -2.53      15.10      11.14
C      -1.25      14.80      11.67
C      -0.11      15.23      10.94
C       1.04      16.38       8.96
C       0.98      17.09       7.72
C       2.13      17.50       6.98
C       3.41      17.20       7.51
C       3.55      16.50       8.73
C       2.38      16.12       9.43
C      12.67       0.50      18.78
C      12.62       1.21      17.54
C      13.76       1.64      16.82
C      15.04       1.34      17.34
C      15.18       0.64      18.56
C      14.00       0.23      19.24
C      11.46       0.07      19.52
C      10.13       0.33      19.06
C       8.96      -0.05      19.76
C       9.10      -0.76      20.98
C      10.38      -1.06      21.50
C      11.52      -0.65      20.76
C      13.66      12.31       9.76
C      14.73      10.24      10.44
C      14.31       9.60       9.25
C      13.13      11.63       8.64
C      11.17      11.88       7.39
C      15.21       9.47      12.60
C      -6.11       7.64      24.79
C      -6.05       8.91      22.73
C      -4.64       8.85      22.70
C      -4.70       7.69      24.83
C      -3.15       7.73      26.58
C      -7.60      10.44      21.89
C      21.45      12.81       3.69
C      22.63      13.30       5.76
C      22.10      14.61       5.78
C      21.03      14.16       3.65
C      20.55      15.64       1.90
C      24.59      12.34       6.60
C      -3.99       0.13      18.72
C      -6.30       0.44      18.04
C      -6.76      -0.17      19.23
C      -4.45      -0.60      19.85
C      -3.56      -2.37      21.09
C      -7.19       0.64      15.89
C       2.04      18.28       5.78
C       3.10      18.72       3.65
C       2.68      20.07       3.69
C       1.51      19.59       5.76
C      -0.46      20.54       6.59
C       3.59      17.25       1.90
C       5.51      -8.84      22.70
C       5.58      -7.69      24.83
C       6.99      -7.64      24.79
C       6.93      -8.91      22.73
C       8.48     -10.44      21.89
C       4.02      -7.73      26.58
C       9.82      23.28       9.25
C      11.00      21.26       8.64
C      10.47      20.58       9.76
C       9.40      22.65      10.44
C       8.92      23.42      12.60
C      12.96      21.01       7.39
C       7.64       0.16      19.23
C       5.33       0.60      19.85
C       4.87      -0.13      18.72
C       7.18      -0.44      18.04
C       8.07      -0.64      15.89
C       4.44       2.37      21.09
C      -9.59      18.75      12.94
C      -8.53      20.37      14.39
C      -8.95      19.66      15.54
C     -10.12      18.11      14.09
C     -12.09      16.91      14.49
C      -8.04      22.62      13.99
C      17.14       1.21       9.47
C      17.21      -1.22       9.40
C      18.62      -1.21       9.47
C      18.55       1.22       9.40
C      20.11       2.71       8.50
C      15.65      -2.71       8.50
C      -1.81      13.24      15.54
C      -0.63      14.78      14.09
C      -1.16      14.15      12.94
C      -2.22      12.52      14.39
C      -2.71      10.27      13.99
C       1.34      15.99      14.50
C      19.27      -0.29      19.01
C      16.96      -1.04      19.08
C      16.50       0.29      19.01
C      18.81       1.04      19.08
C      19.70       3.01      19.98
C      16.07      -3.00      19.99
C      -1.16       4.13      18.73
C      -2.23       6.20      18.04
C      -1.81       6.84      19.23
C      -0.63       4.81      19.85
C       1.32       4.59      21.12
C      -2.72       6.94      15.88
C      18.62       8.81       3.69
C      18.56       7.54       5.76
C      17.15       7.61       5.79
C      17.20       8.76       3.65
C      15.62       8.72       1.93
C      20.14       6.03       6.59
C      -8.94       3.63      24.79
C     -10.12       3.15      22.72
C      -9.59       1.84      22.70
C      -8.52       2.28      24.83
C      -8.03       0.77      26.55
C     -12.07       4.14      21.90
C      16.50      16.31       9.75
C      18.80      16.00      10.44
C      19.26      16.60       9.25
C      16.96      17.04       8.63
C      16.10      18.81       7.36
C      19.66      15.78      12.60
C      10.47      -1.84      22.70
C       9.40      -2.28      24.83
C       9.82      -3.63      24.79
C      11.00      -3.15      22.73
C      12.95      -4.14      21.90
C       8.91      -0.77      26.56
C       6.99      25.29       5.78
C       6.93      24.13       3.65
C       5.52      24.08       3.69
C       5.58      25.35       5.76
C       3.99      26.86       6.59
C       8.51      24.17       1.93
C       2.69      -6.84      19.23
C       1.51      -4.81      19.85
C       2.04      -4.13      18.73
C       3.11      -6.20      18.04
C       3.60      -6.94      15.88
C      -0.44      -4.59      21.12
C       4.87      16.29       9.25
C       7.17      15.85       8.64
C       7.64      16.58       9.76
C       5.33      16.89      10.44
C       4.47      17.11      12.61
C       8.04      14.08       7.37
C      22.10      -2.29      15.54
C      21.03      -3.92      14.09
C      21.44      -3.21      12.94
C      22.63      -1.66      14.39
C      24.58      -0.45      13.95
C      20.54      -6.17      14.54
C      -4.64      15.24      19.01
C      -4.70      17.66      19.07
C      -6.11      17.65      19.00
C      -6.05      15.23      19.07
C      -7.64      13.75      19.97
C      -3.12      19.14      19.97
C      14.32       3.21      12.95
C      13.14       1.66      14.39
C      13.67       2.29      15.54
C      14.74       3.92      14.09
C      15.23       6.17      14.54
C      11.18       0.45      13.95
C      -6.76      16.73       9.48
C      -4.45      17.49       9.41
C      -3.99      16.15       9.48
C      -6.30      15.40       9.41
C      -7.16      13.42       8.52
C      -3.59      19.47       8.51
H      16.91       5.45       7.32
H      14.47       5.33      11.37
H      15.08       9.85       6.27
H      15.08       0.50      11.66
H      14.46       7.17      10.29
H      16.90       3.60       8.37
H      -1.97       9.27      18.18
H      -4.41      12.84      20.10
H      -2.58       6.60      22.22
H      -2.57      15.94      16.82
H      -4.39      11.00      21.18
H      -1.96      11.12      17.12
H      21.61      17.26      10.30
H      -9.10      16.15       8.38
H      19.29      15.80       6.27
H      -6.79      18.92      11.66
H      24.05      15.56       7.31
H     -11.54      17.90      11.36
H     -11.54       0.90      21.17
H      24.05      -1.44      17.12
H      -6.78       0.64      22.21
H      19.29      -2.47      16.82
H      -9.10      -0.84      18.19
H      21.61       0.28      20.11
H       5.28      23.83       1.06
H      -8.78       3.93      27.42
H       3.45      22.53       5.39
H      -8.18       6.09      23.09
H       2.83      20.39       1.06
H      -6.36       7.39      27.42
H       9.66      -3.94      27.42
H      18.85       9.06       1.07
H       9.05      -6.09      23.09
H      20.68      10.35       5.40
H       7.24      -7.39      27.42
H      21.30      12.50       1.06
H       9.98      15.34       9.80
H      14.16      17.55       9.80
H       7.66      19.56      10.55
H      16.47      13.33      10.55
H      12.42      18.78       9.82
H      11.72      14.11       9.82
H       0.09      -2.34      18.68
H       0.79       2.34      18.68
H       4.85      -3.11      17.93
H      -3.97       3.11      17.93
H       2.53       1.11      18.66
H      -1.65      -1.11      18.67
H      -6.35      20.05      20.10
H       2.84      -9.27      18.18
H      -8.18      16.95      16.82
H       3.45      -6.60      22.22
H      -8.80      21.78      17.12
H       5.27     -11.00      21.17
H      21.29      -5.33      11.37
H       7.22      27.44       7.32
H      20.68      -0.50      11.66
H       9.05      23.04       6.27
H      18.86      -3.61       8.37
H       9.67      25.72      10.29
H      -1.65      16.73       8.38
H       2.53      15.63      10.30
H      -3.96      13.97      11.66
H       4.84      17.08       6.27
H       0.79      14.99      11.36
H       0.09      17.33       7.31
H      11.72       1.43      17.12
H      12.42      -0.90      21.17
H      16.48       2.47      16.82
H       7.66      -0.64      22.21
H      14.16      -0.28      20.11
H       9.98       0.83      18.19
H      10.77      12.47       6.57
H      10.55      12.05       8.27
H      11.12      10.83       7.11
H      16.03       9.03      13.17
H      14.36       8.78      12.62
H      14.93      10.41      13.08
H      -2.62       7.05      27.25
H      -3.74       8.42      27.19
H      -2.40       8.29      26.01
H      -8.13      10.68      20.97
H      -7.01      11.31      22.18
H      -8.35      10.23      22.66
H      19.73      15.91       1.23
H      21.40      15.32       1.29
H      20.83      16.53       2.47
H      24.99      11.92       7.52
H      25.22      13.19       6.30
H      24.64      11.57       5.83
H      -2.87      -2.55      21.92
H      -3.19      -2.90      20.21
H      -4.54      -2.76      21.38
H      -7.87       1.26      15.32
H      -7.55      -0.39      15.87
H      -6.21       0.69      15.40
H      -0.86      20.96       7.52
H      -1.08      19.70       6.30
H      -0.51      21.32       5.82
H       4.40      16.97       1.23
H       2.74      17.57       1.29
H       3.31      16.36       2.47
H       9.01     -10.68      20.96
H       7.89     -11.31      22.18
H       9.23     -10.23      22.66
H       3.50      -7.05      27.25
H       4.62      -8.42      27.19
H       3.28      -8.29      26.01
H       8.11      23.86      13.17
H       9.77      24.11      12.62
H       9.20      22.48      13.08
H      13.36      20.42       6.57
H      13.59      20.84       8.27
H      13.01      22.06       7.10
H       8.76      -1.26      15.32
H       8.43       0.39      15.87
H       7.09      -0.69      15.40
H       3.75       2.55      21.91
H       4.07       2.90      20.21
H       5.42       2.76      21.38
H     -12.49      15.90      14.40
H     -12.71      17.59      13.91
H     -12.13      17.19      15.55
H      -7.23      23.33      14.08
H      -8.89      22.98      14.57
H      -8.32      22.57      12.93
H      20.64       3.63       8.75
H      19.52       2.89       7.60
H      20.85       1.94       8.30
H      15.12      -3.63       8.75
H      16.24      -2.89       7.60
H      14.91      -1.94       8.30
H      -3.52       9.56      14.08
H      -1.86       9.91      14.57
H      -2.43      10.32      12.93
H       1.74      16.99      14.40
H       1.96      15.31      13.91
H       1.38      15.71      15.55
H      20.38       3.81      19.73
H      20.06       2.51      20.89
H      18.72       3.45      20.18
H      15.38      -3.81      19.73
H      15.70      -2.51      20.89
H      17.05      -3.45      20.19
H       1.73       4.00      21.94
H       1.96       4.45      20.24
H       1.35       5.64      21.42
H      -3.54       7.39      15.31
H      -1.86       7.61      15.83
H      -2.46       5.99      15.40
H      15.10       9.40       1.26
H      16.19       8.01       1.32
H      14.87       8.18       2.52
H      20.67       5.79       7.51
H      19.57       5.15       6.27
H      20.89       6.27       5.83
H      -7.21       0.50      27.22
H      -8.89       1.07      27.16
H      -8.29      -0.11      25.97
H     -12.48       4.56      20.97
H     -12.71       3.31      22.21
H     -12.09       4.93      22.65
H      15.41      18.99       6.54
H      15.75      19.36       8.24
H      17.08      19.18       7.06
H      20.36      15.16      13.17
H      20.01      16.81      12.65
H      18.68      15.70      13.08
H      13.35      -4.55      20.98
H      13.59      -3.31      22.21
H      12.97      -4.92      22.66
H       8.09      -0.50      27.23
H       9.77      -1.07      27.16
H       9.16       0.11      25.97
H       3.47      27.10       7.51
H       4.56      27.74       6.27
H       3.24      26.62       5.83
H       9.04      23.49       1.26
H       7.94      24.88       1.32
H       9.26      24.71       2.52
H       4.41      -7.39      15.31
H       2.74      -7.61      15.83
H       3.34      -5.99      15.41
H      -0.85      -4.00      21.94
H      -1.08      -4.45      20.25
H      -0.46      -5.64      21.42
H       3.78      17.73      13.18
H       4.12      16.08      12.65
H       5.45      17.19      13.08
H       8.73      13.90       6.55
H       8.38      13.53       8.24
H       7.05      13.71       7.06
H      24.98       0.56      14.05
H      25.22      -1.14      14.51
H      24.60      -0.72      12.89
H      19.72      -6.88      14.43
H      21.40      -6.54      13.98
H      20.79      -6.10      15.60
H      -8.16      12.83      19.72
H      -7.07      13.59      20.89
H      -8.38      14.53      20.14
H      -2.59      20.06      19.71
H      -3.69      19.30      20.89
H      -2.37      18.36      20.14
H      16.04       6.88      14.43
H      14.37       6.54      13.97
H      14.97       6.10      15.60
H      10.78      -0.56      14.05
H      10.54       1.14      14.51
H      11.16       0.71      12.89
H      -7.85      12.61       8.77
H      -7.50      13.90       7.60
H      -6.17      12.97       8.35
H      -2.90      20.27       8.77
H      -3.25      18.99       7.60
H      -4.58      19.92       8.34
N      14.44      11.56      10.60
N      13.53      10.35       8.42
N      -6.70       8.25      23.73
N      -4.05       8.23      23.77
N      22.23      12.46       4.76
N      21.32      14.96       4.71
N      -4.95       0.61      17.89
N      -5.79      -0.65      20.07
N       2.81      17.93       4.71
N       1.91      20.42       4.76
N       4.92      -8.23      23.77
N       7.58      -8.25      23.73
N      10.60      22.54       8.41
N       9.69      21.33      10.60
N       6.68       0.65      20.07
N       5.83      -0.61      17.89
N      -8.81      19.84      13.17
N      -9.72      18.56      15.31
N      16.55      -0.02       9.47
N      19.21       0.02       9.47
N      -1.03      14.33      15.31
N      -1.93      13.05      13.17
N      18.30      -1.26      19.01
N      17.46       1.26      19.01
N      -1.94       4.88      17.89
N      -1.03       6.10      20.07
N      19.21       8.20       4.76
N      16.55       8.22       4.72
N      -9.72       3.98      23.73
N      -8.81       1.49      23.76
N      17.46      15.83      10.59
N      18.30      17.09       8.41
N       9.69      -1.49      23.76
N      10.59      -3.98      23.73
N       7.58      24.67       4.72
N       4.92      24.69       4.76
N       1.91      -6.09      20.07
N       2.82      -4.88      17.89
N       5.83      15.80       8.42
N       6.67      17.06      10.59
N      21.32      -3.39      15.31
N      22.22      -2.11      13.17
N      -4.05      16.47      19.01
N      -6.70      16.42      19.00
N      13.54       2.11      13.17
N      14.45       3.39      15.31
N      -5.80      17.70       9.48
N      -4.95      15.19       9.48
O      15.81       9.76       6.92
O      15.81       1.11      11.91
O      -3.31       6.69      21.57
O      -3.31      15.33      16.57
O      19.62      15.14       6.92
O      -7.11      18.03      11.91
O      -7.11       1.30      21.56
O      19.62      -1.58      16.57
O       4.18      22.01       4.99
O      -7.44       5.57      23.49
O       8.32      -5.58      23.49
O      19.95      10.87       4.99
O       7.99      19.33       9.66
O      16.14      13.56       9.65
O       4.52      -2.88      18.83
O      -3.64       2.88      18.83
O      -7.45      17.56      16.57
O       4.19      -6.69      21.57
O      19.95      -1.11      11.91
O       8.32      23.13       6.92
O      -3.64      14.86      11.91
O       4.51      17.75       6.92
O      16.15       1.58      16.57
O       7.99      -1.30      21.56
O      12.52      12.31       7.62
O      15.68       9.68      11.26
O      -3.99       6.94      25.73
O      -6.77       9.30      21.63
O      20.09      14.59       2.76
O      23.24      12.76       6.85
O      -3.61      -0.95      20.86
O      -7.14       1.15      17.23
O       0.89      20.13       6.85
O       4.05      18.30       2.76
O       7.64      -9.30      21.63
O       4.86      -6.94      25.73
O       8.46      23.21      11.25
O      11.61      20.58       7.62
O       8.02      -1.15      17.23
O       4.49       0.95      20.86
O     -10.74      16.89      14.01
O      -7.58      21.35      14.47
O      19.27       2.36       9.61
O      16.49      -2.36       9.61
O      -3.17      11.54      14.47
O      -0.02      16.00      14.01
O      19.65       2.10      18.87
O      16.12      -2.10      18.88
O      -0.02       4.14      20.87
O      -3.17       6.76      17.23
O      16.49       9.50       2.76
O      19.27       7.14       6.85
O      -7.58       1.85      25.72
O     -10.73       3.69      21.63
O      16.12      17.39       7.62
O      19.64      15.29      11.25
O      11.61      -3.69      21.63
O       8.46      -1.85      25.72
O       4.86      25.75       6.85
O       7.64      23.38       2.76
O       4.05      -6.76      17.23
O       0.89      -4.13      20.87
O       4.49      17.60      11.26
O       8.02      15.50       7.62
O      23.24      -0.44      14.47
O      20.08      -4.91      14.01
O      -6.77      14.08      18.87
O      -3.99      18.81      18.87
O      15.68       4.91      14.02
O      12.52       0.44      14.47
O      -7.14      14.34       9.61
O      -3.61      18.54       9.61
