26

H       7.31       1.87      17.19
H       7.65      -2.03      20.21
O       8.40      -1.10      15.48
O       8.39       0.98      21.95
O       6.11      -0.90      15.49
O       6.10       0.78      21.93
C       5.85      -0.16      19.51
C       5.85      -0.21      17.99
C       7.92       1.26      19.22
C       8.21      -1.29      18.22
C       8.11      -1.13      19.75
C       7.90       1.08      17.69
C       7.29       0.10      20.03
C       7.30      -0.29      17.43
C       7.28      -0.68      15.99
C       7.27       0.53      21.46
H       5.11       0.60      19.82
H       5.21      -1.02      17.65
H       5.48      -1.11      19.92
H       5.34       0.69      17.60
H       7.27       2.06      19.47
H       8.09      -2.32      17.90
H       9.12      -0.99      20.19
H       8.93       1.15      17.28
H       9.25      -1.00      17.95
H       8.95       1.45      19.56
