26

C      -0.29       5.09      11.96
H      -1.04       2.81      10.82
C      -1.49       3.68      10.31
H      -2.52       3.80      10.71
C      -0.66       4.93      10.54
H      -2.49       3.07       8.45
C      -1.03       4.68       7.97
C       0.46       4.81       8.20
C      -1.52       3.44       8.79
O      -0.49       6.25      12.51
O       0.49       4.16      12.42
C      -1.38       4.41       6.56
O      -2.32       5.15       6.06
O      -1.00       3.26       6.11
C      -1.51       6.11      10.01
C      -1.65       6.01       8.49
C       0.67       4.75       9.72
H      -1.11       7.07      10.30
H      -0.78       2.65       8.60
H       1.01       3.71       9.92
H       1.01       3.98       7.70
H      -2.52       6.09      10.47
H      -2.70       6.12       8.19
H      -1.16       6.87       8.01
H       1.47       5.42      10.04
H       0.85       5.76       7.78
