13

Sr       2.83       8.12       0.00
C       2.39      10.98       1.88
C       1.08      10.56      -2.63
C       2.47       5.45       2.44
C       5.50       8.52      -2.44
S       0.00       7.24      -0.76
S       3.67      10.96       0.76
O       1.06       9.34      -1.79
O       1.59       9.87       1.79
O       2.23       6.29       1.61
O       4.65       8.75      -1.61
C      -0.03       8.52      -1.88
C       0.37       9.84       2.63
