22

C      12.11       9.77       3.41
C      13.46       9.82       3.11
C      14.19       8.62       3.05
C      13.51       7.42       3.30
C      16.07      10.78       0.68
C      12.14       7.45       3.57
C      15.67       9.83      -0.27
C      16.03      12.42      -1.08
C      15.49      10.22      -1.58
C      16.24      12.11       0.26
H      11.53      10.68       3.49
H      13.95      10.78       2.96
H      14.01       6.45       3.28
H      11.59       6.54       3.78
H      15.51       8.79       0.02
H      16.15      13.44      -1.45
H      15.20       9.51      -2.35
H      16.53      12.88       0.96
S      15.93       8.53       2.69
S      16.46      10.48       2.38
N      11.45       8.61       3.64
N      15.67      11.50      -2.00
