20

O      11.11       5.18       5.10
O      11.21       2.92       5.09
O       8.94       6.76       3.49
O       8.73       7.27       5.64
C       6.29       3.44       4.96
C       7.19       2.35       4.92
C       6.76       0.92       4.79
C       4.81       3.21       5.14
C       8.18       5.01       4.88
C       9.08       3.92       4.91
C      10.57       4.05       5.02
C       8.66       6.42       4.70
C       6.80       4.75       4.93
C       8.55       2.63       4.91
H       6.10       5.58       4.94
H       9.24       1.80       4.91
O       5.56       0.62       4.70
O       7.75       0.08       4.72
O       4.42       3.00       6.36
O       3.97       3.29       4.20
