616

H      31.37      11.64       6.23
H      31.00       9.35       6.76
H      30.99       7.05       7.43
H      31.36       4.76       7.98
H       2.94       5.37       7.80
H       2.95      11.04       6.48
H       2.52       7.03       4.44
H       6.72       6.86       3.88
H       7.05       7.80       6.04
H       2.48       9.36       9.82
H       7.04       8.63       8.26
H       6.68       9.55      10.42
H      17.72       4.55      37.30
H      18.09       6.85      37.83
H      18.10       9.14      38.49
H      17.73      11.43      39.06
H      13.53      10.82      38.88
H      13.53       5.15      37.56
H      13.96       9.16      35.52
H       9.76       9.33      34.96
H       9.42       8.39      37.12
H      14.00       6.83      40.90
H       9.44       7.56      39.34
H       9.80       6.64      41.50
H      21.00      14.92      21.77
H      23.30      14.55      22.30
H      25.59      14.55      22.97
H      27.88      14.91      23.52
H      27.27      19.11      23.34
H      21.61      19.12      22.02
H      25.61      18.68      19.98
H      25.78      22.88      19.42
H      24.85      23.22      21.58
H      23.29      18.65      25.36
H      24.02      23.21      23.80
H      23.10      22.84      25.96
H      28.09       1.27      52.84
H      25.80       1.65      53.38
H      23.50       1.65      54.04
H      21.21       1.28      54.60
H      21.82      29.70      54.42
H      27.49      29.69      53.09
H      23.48      30.13      51.05
H      23.31      25.93      50.49
H      24.25      25.59      52.65
H      25.81      30.16      56.43
H      25.08      25.60      54.87
H      26.00      25.96      57.03
H      15.16      27.79      37.74
H      14.80      25.46      38.11
H      14.82      23.12      38.58
H      15.20      20.78      38.93
H      19.39      21.43      38.73
H      19.36      27.17      37.78
H      18.89      23.18      35.57
H      23.07      22.97      34.95
H      23.46      23.88      37.11
H      18.95      25.44      40.97
H      23.48      24.70      39.34
H      23.15      25.63      41.51
H       1.32      21.01       6.66
H       1.68      23.34       7.04
H       1.67      25.68       7.51
H       1.29      28.01       7.86
H      29.71      27.38       7.66
H      29.73      21.64       6.70
H      30.21      25.62       4.49
H      26.02      25.84       3.87
H      25.63      24.93       6.03
H      30.14      23.37       9.89
H      25.61      24.11       8.27
H      25.94      23.18      10.44
H       4.85      31.33      53.27
H       7.18      30.96      53.65
H       9.52      30.98      54.12
H      11.85      31.36      54.47
H      11.21       2.94      54.27
H       5.48       2.91      53.31
H       9.46       2.44      51.11
H       9.68       6.63      50.49
H       8.77       7.01      52.65
H       7.20       2.50      56.51
H       7.94       7.04      54.89
H       7.01       6.70      57.05
H      11.63      17.48      22.20
H       9.30      17.84      22.58
H       6.96      17.83      23.06
H       4.63      17.44      23.40
H       5.27      13.25      23.20
H      11.00      13.28      22.24
H       7.02      13.76      20.04
H       6.80       9.57      19.41
H       7.71       9.19      21.57
H       9.28      13.69      25.43
H       8.53       9.16      23.81
H       9.46       9.49      25.97
H       0.28       3.39      10.11
H       1.43       3.10       6.07
H      31.37      31.65      11.16
H      32.05       1.34      11.27
H      31.23      29.50       9.86
H      32.32      29.56       5.79
H      16.19      12.80      41.19
H      15.05      13.09      37.14
H      17.72      17.15      42.23
H      17.04      14.86      42.35
H      17.86      19.30      40.94
H      16.79      19.25      36.86
H      29.25      16.45      25.65
H      29.55      17.60      21.61
H       0.99      14.92      26.69
H      31.30      15.60      26.81
H       3.14      14.78      25.40
H       3.09      15.86      21.33
H      19.84      32.36      56.73
H      19.55      31.21      52.68
H      15.49       1.27      57.77
H      17.79       0.59      57.88
H      13.34       1.41      56.48
H      13.40       0.33      52.40
H      16.20       3.13      35.25
H      15.02       2.92      39.29
H      17.71      31.37      34.29
H      17.04       1.06      34.13
H      17.84      29.24      35.63
H      16.73      29.38      39.69
H       0.29      13.06       4.17
H       1.45      13.27       8.21
H      31.38      17.44       3.21
H      32.06      15.14       3.05
H      31.25      19.56       4.55
H      32.35      19.42       8.61
H      19.59      16.45      19.71
H      19.37      17.62      23.75
H      15.21      14.93      18.75
H      17.51      15.61      18.59
H      13.08      14.81      20.08
H      13.22      15.90      24.15
H      29.51      32.36      50.78
H      29.72      31.19      54.82
H       1.28       1.26      49.82
H      31.59       0.59      49.66
H       3.40       1.39      51.16
H       3.26       0.29      55.23
H       4.53      10.50      18.76
H       7.54      13.05      17.28
H       2.48       8.78      14.90
H       3.02       9.36      17.16
H       3.06       8.88      12.47
H       5.88      11.76      11.23
H      11.95       5.69      49.84
H       8.94       3.15      48.36
H      14.00       7.42      45.98
H      13.46       6.83      48.24
H      13.42       7.31      43.54
H      10.60       4.43      42.30
H      22.14      20.69      34.30
H      19.60      23.70      32.81
H      23.87      18.65      30.44
H      23.28      19.18      32.70
H      23.77      19.23      28.01
H      20.89      22.04      26.77
H      26.95      28.11       3.22
H      29.49      25.10       1.74
H      25.23      30.15      61.51
H      25.81      29.62       1.62
H      25.33      29.58      59.08
H      28.21      26.76      57.84
H      11.75      10.38      26.61
H       8.80      12.95      28.18
H      13.85       8.59      30.41
H      13.27       9.20      28.17
H      13.32       8.68      32.86
H      10.56      11.57      34.19
H       4.73       5.81      57.68
H       7.68       3.25      59.26
H       2.63       7.60      61.49
H       3.20       6.99      59.24
H       3.15       7.51       1.78
H       5.91       4.62       3.11
H      26.84      20.89      11.07
H      29.40      23.84      12.64
H      25.04      18.79      14.87
H      25.66      19.37      12.63
H      25.13      19.32      17.32
H      28.02      22.08      18.65
H      22.26      27.92      42.15
H      19.70      24.97      43.72
H      24.05      30.02      45.95
H      23.44      29.44      43.70
H      23.97      29.49      48.39
H      21.07      26.73      49.72
C       3.66       8.61       8.23
C       4.98       8.45       7.79
C       4.99       7.97       6.49
C       3.67       7.80       6.04
C       3.47       7.22       4.76
C       4.58       6.81       3.96
C       5.89       7.09       4.44
C       6.10       7.65       5.70
C       6.08       8.77       8.59
C       5.86       9.33       9.85
C       4.54       9.59      10.32
C       3.44       9.18       9.51
C       1.77       9.30       6.78
C       0.45       8.86       6.90
C       0.45       7.55       7.32
C       1.77       7.10       7.47
C      31.95       6.72       7.55
C      32.18       5.38       7.88
C       0.88       4.87       7.98
C       1.99       5.73       7.77
C       2.00      10.67       6.49
C       0.89      11.54       6.27
C      32.18      11.03       6.34
C      31.95       9.69       6.66
C       2.72       8.20       7.13
C      12.82       7.59      39.30
C      11.50       7.74      38.86
C      11.49       8.23      37.57
C      12.80       8.39      37.12
C      13.01       8.98      35.84
C      11.89       9.39      35.04
C      10.59       9.11      35.52
C      10.38       8.54      36.78
C      10.40       7.42      39.67
C      10.62       6.86      40.93
C      11.94       6.59      41.40
C      13.04       7.01      40.59
C      14.71       6.89      37.85
C      16.03       7.34      37.97
C      16.03       8.65      38.39
C      14.71       9.09      38.55
C      17.14       9.48      38.62
C      16.91      10.82      38.96
C      15.60      11.33      39.06
C      14.49      10.46      38.85
C      14.48       5.52      37.56
C      15.59       4.65      37.34
C      16.91       5.17      37.41
C      17.14       6.51      37.73
C      13.76       7.99      38.21
C      24.04      19.83      23.77
C      24.19      21.14      23.32
C      24.68      21.15      22.03
C      24.84      19.84      21.58
C      25.43      19.63      20.30
C      25.84      20.75      19.50
C      25.56      22.05      19.98
C      24.99      22.27      21.24
C      23.88      22.25      24.13
C      23.32      22.02      25.39
C      23.05      20.71      25.86
C      23.46      19.61      25.05
C      23.34      17.93      22.32
C      23.79      16.61      22.44
C      25.10      16.61      22.86
C      25.54      17.93      23.01
C      25.93      15.50      23.09
C      27.27      15.73      23.42
C      27.78      17.05      23.52
C      26.91      18.15      23.31
C      21.97      18.16      22.03
C      21.10      17.06      21.81
C      21.62      15.74      21.88
C      22.96      15.51      22.20
C      24.44      18.88      22.67
C      25.06      28.98      54.84
C      24.90      27.66      54.40
C      24.42      27.66      53.11
C      24.25      28.97      52.66
C      23.67      29.17      51.37
C      23.25      28.06      50.57
C      23.53      26.76      51.05
C      24.10      26.54      52.31
C      25.22      26.56      55.20
C      25.78      26.78      56.46
C      26.05      28.10      56.93
C      25.63      29.20      56.12
C      25.75      30.87      53.39
C      25.31      32.19      53.51
C      24.00      32.20      53.94
C      23.55      30.88      54.09
C      23.17       0.69      54.16
C      21.83       0.47      54.50
C      21.32      31.76      54.60
C      22.19      30.65      54.39
C      27.12      30.65      53.10
C      27.99      31.75      52.88
C      27.48       0.46      52.95
C      26.14       0.69      53.27
C      24.65      29.92      53.74
C      20.10      24.66      39.37
C      21.42      24.52      38.90
C      21.40      24.07      37.60
C      20.08      23.94      37.16
C      19.84      23.36      35.87
C      20.94      22.95      35.06
C      22.26      23.21      35.52
C      22.50      23.76      36.78
C      22.53      24.83      39.69
C      22.33      25.39      40.96
C      21.02      25.66      41.44
C      19.90      25.25      40.65
C      18.18      25.41      38.00
C      16.87      24.96      38.15
C      16.88      23.63      38.48
C      18.20      23.18      38.58
C      15.77      22.77      38.66
C      16.01      21.41      38.86
C      17.33      20.90      38.87
C      18.43      21.79      38.77
C      18.40      26.80      37.79
C      17.29      27.69      37.72
C      15.98      27.17      37.78
C      15.76      25.80      38.00
C      19.14      24.30      38.28
C      28.99      24.14       8.29
C      27.68      24.29       7.83
C      27.69      24.73       6.52
C      29.01      24.87       6.08
C      29.25      25.44       4.79
C      28.15      25.85       3.98
C      26.83      25.59       4.44
C      26.60      25.05       5.71
C      26.56      23.98       8.62
C      26.77      23.42       9.88
C      28.08      23.15      10.37
C      29.19      23.56       9.58
C      30.91      23.39       6.92
C      32.23      23.84       7.07
C      32.22      25.18       7.41
C      30.90      25.63       7.50
C       0.71      26.03       7.59
C       0.48      27.39       7.79
C      31.77      27.90       7.80
C      30.66      27.01       7.69
C      30.69      22.00       6.71
C      31.80      21.12       6.64
C       0.50      21.63       6.71
C       0.73      23.00       6.93
C      29.95      24.51       7.20
C       7.97       3.65      54.91
C       8.12       4.97      54.44
C       8.57       4.95      53.14
C       8.71       3.63      52.70
C       9.28       3.40      51.41
C       9.69       4.49      50.60
C       9.43       5.81      51.06
C       8.89       6.05      52.32
C       7.81       6.08      55.23
C       7.26       5.87      56.50
C       6.98       4.57      56.98
C       7.40       3.45      56.19
C       7.23       1.74      53.53
C       7.68       0.42      53.68
C       9.02       0.43      54.02
C       9.46       1.75      54.12
C       9.87      31.94      54.20
C      11.23      32.17      54.40
C      11.74       0.88      54.41
C      10.85       1.98      54.31
C       5.84       1.96      53.32
C       4.96       0.85      53.25
C       5.47      32.14      53.32
C       6.84      31.92      53.54
C       8.34       2.69      53.81
C       8.50      12.54      23.83
C       8.35      11.23      23.36
C       7.91      11.24      22.06
C       7.77      12.57      21.62
C       7.20      12.80      20.33
C       6.79      11.70      19.52
C       7.04      10.38      19.98
C       7.59      10.15      21.24
C       8.66      10.11      24.15
C       9.22      10.32      25.42
C       9.50      11.62      25.91
C       9.08      12.74      25.12
C       9.25      14.46      22.46
C       8.80      15.78      22.61
C       7.47      15.77      22.95
C       7.02      14.44      23.04
C       6.62      16.87      23.13
C       5.25      16.63      23.33
C       4.74      15.31      23.34
C       5.63      14.21      23.23
C      10.64      14.24      22.25
C      11.53      15.35      22.18
C      11.01      16.66      22.25
C       9.64      16.89      22.47
C       8.14      13.50      22.74
C       1.00       3.46       8.12
C       1.15       2.68       6.95
C       0.23       0.75       8.03
C       0.10       1.47       9.25
C       0.48       2.83       9.27
C      32.39      32.02       7.96
C      32.12      30.03       6.67
C      31.65      29.31       7.80
C      31.51      30.01       9.02
C      31.86      31.38       9.11
C      31.75      32.10      10.32
C      32.16       0.83      10.38
C      15.48      12.73      39.20
C      15.33      13.52      38.03
C      16.26      15.44      39.11
C      16.38      14.72      40.33
C      16.00      13.36      40.35
C      16.71      16.78      39.03
C      16.98      18.77      37.75
C      17.45      19.49      38.87
C      17.59      18.79      40.09
C      17.24      17.43      40.18
C      17.34      16.71      41.39
C      16.94      15.36      41.46
C      29.18      17.16      23.66
C      29.97      17.31      22.49
C      31.89      16.39      23.57
C      31.17      16.26      24.79
C      29.81      16.64      24.81
C       0.62      15.94      23.50
C       2.61      15.67      22.21
C       3.33      15.19      23.33
C       2.63      15.05      24.56
C       1.26      15.41      24.65
C       0.55      15.30      25.86
C      31.81      15.71      25.92
C      19.91      31.65      54.74
C      19.13      31.49      53.57
C      17.20      32.42      54.65
C      17.92      32.54      55.87
C      19.28      32.16      55.89
C      15.87       0.26      54.57
C      13.87       0.53      53.29
C      13.15       1.00      54.41
C      13.85       1.14      55.63
C      15.22       0.79      55.72
C      15.94       0.89      56.93
C      17.28       0.48      57.00
C      15.48       3.24      37.23
C      15.32       2.48      38.41
C      16.23       0.53      37.37
C      16.37       1.23      36.14
C      16.00       2.59      36.09
C      16.68      31.81      37.48
C      16.93      29.84      38.80
C      17.41      29.10      37.69
C      17.56      29.77      36.46
C      17.21      31.14      36.34
C      17.33      31.83      35.12
C      16.93       0.57      35.03
C       1.00      12.95       6.15
C       1.17      13.71       7.33
C       0.24      15.66       6.29
C       0.11      14.96       5.06
C       0.48      13.60       5.01
C      32.41      17.00       6.40
C      32.16      18.96       7.72
C      31.68      19.71       6.61
C      31.53      19.03       5.38
C      31.88      17.67       5.26
C      31.76      16.97       4.04
C      32.16      15.63       3.94
C      19.69      17.17      21.70
C      18.93      17.33      22.87
C      16.98      16.41      21.83
C      17.68      16.27      20.60
C      19.04      16.65      20.55
C      15.65      15.97      21.94
C      13.68      15.71      23.26
C      12.94      15.23      22.15
C      13.61      15.08      20.92
C      14.98      15.43      20.80
C      15.67      15.32      19.58
C      17.02      15.72      19.48
C      29.40      31.64      52.76
C      30.16      31.48      53.94
C      32.11      32.40      52.90
C      31.41      32.54      51.67
C      30.05      32.16      51.62
C       0.83       0.23      53.01
C       2.80       0.48      54.33
C       3.55       0.96      53.23
C       2.87       1.11      51.99
C       1.51       0.77      51.87
C       0.81       0.88      50.65
C      32.08       0.48      50.56
C       6.11      11.83      18.26
C       6.69      12.49      17.16
C       5.18      11.44      15.61
C       4.51      10.79      16.68
C       4.97      11.02      17.99
C       4.84      11.12      14.27
C       5.30      11.31      11.94
C       4.43      10.24      11.60
C       3.67       9.68      12.66
C       3.86      10.11      14.00
C       3.18       9.51      15.07
C       3.49       9.86      16.40
C      10.37       4.37      49.34
C       9.79       3.70      48.24
C      11.30       4.76      46.68
C      11.97       5.41      47.75
C      11.52       5.17      49.07
C      11.64       5.08      45.35
C      11.18       4.88      43.01
C      12.05       5.95      42.68
C      12.81       6.51      43.73
C      12.62       6.08      45.07
C      13.30       6.69      46.15
C      12.99       6.34      47.48
C      20.82      22.27      33.80
C      20.15      22.85      32.70
C      21.21      21.35      31.14
C      21.85      20.68      32.22
C      21.62      21.13      33.53
C      21.53      21.00      29.81
C      21.33      21.46      27.48
C      22.41      20.60      27.14
C      22.97      19.84      28.20
C      22.53      20.03      29.54
C      23.14      19.34      30.61
C      22.79      19.65      31.94
C      28.27      26.53       2.72
C      28.94      25.95       1.62
C      27.89      27.45       0.07
C      27.24      28.12       1.14
C      27.47      27.67       2.46
C      27.56      27.80      60.88
C      27.76      27.34      58.55
C      26.69      28.21      58.21
C      26.13      28.96      59.27
C      26.56      28.78      60.61
C      25.96      29.46      61.69
C      26.30      29.15       0.86
C      10.19      11.71      27.16
C       9.64      12.38      28.28
C      11.16      11.29      29.79
C      11.80      10.64      28.70
C      11.33      10.89      27.39
C      11.54      10.95      31.11
C      11.13      11.13      33.46
C      11.99      10.04      33.76
C      12.72       9.49      32.69
C      12.50       9.93      31.36
C      13.16       9.33      30.26
C      12.82       9.70      28.94
C       6.28       4.48      58.23
C       6.83       3.81      59.35
C       5.31       4.90      60.86
C       4.67       5.55      59.77
C       5.14       5.30      58.47
C       4.94       5.24       0.04
C       5.35       5.06       2.38
C       4.49       6.15       2.69
C       3.76       6.71       1.61
C       3.97       6.26       0.28
C       3.32       6.86      61.34
C       3.65       6.50      60.02
C      28.17      22.45      11.62
C      28.83      23.00      12.74
C      27.74      21.48      14.25
C      27.10      20.84      13.16
C      27.35      21.31      11.85
C      27.40      21.10      15.58
C      27.58      21.51      17.92
C      26.49      20.65      18.23
C      25.94      19.92      17.15
C      26.38      20.14      15.82
C      25.78      19.49      14.72
C      26.15      19.82      13.40
C      20.93      26.36      42.69
C      20.26      25.81      43.81
C      21.35      27.33      45.32
C      22.00      27.97      44.23
C      21.75      27.50      42.93
C      21.69      27.71      46.65
C      21.51      27.30      48.99
C      22.60      28.16      49.30
C      23.16      28.89      48.22
C      22.71      28.67      46.89
C      23.31      29.32      45.80
C      22.95      28.99      44.48
N       0.75       1.38       6.95
N      32.49      31.33       6.80
N      15.73      14.81      38.03
N      16.61      17.47      37.87
N      31.27      16.91      22.49
N       1.31      16.04      22.33
N      17.83      31.89      53.56
N      15.17       0.16      53.41
N      15.71       1.18      38.44
N      16.57      31.14      38.65
N       0.77      15.01       7.36
N      32.52      17.67       7.57
N      17.63      16.94      22.90
N      14.98      16.07      23.11
N      31.46      31.87      53.97
N       1.50       0.12      54.18
N       6.23      12.26      15.90
N       5.49      11.68      13.23
N      10.25       3.93      46.98
N      10.99       4.51      44.31
N      20.38      22.39      31.44
N      20.97      21.66      28.77
N      28.71      26.41       0.36
N      28.13      27.14      59.84
N      10.12      12.13      29.53
N      10.91      11.51      32.18
N       6.35       4.06      60.60
N       5.57       4.68       1.10
N      28.58      22.52      13.99
N      27.96      21.73      16.64
N      20.51      26.29      45.06
N      21.13      27.08      47.71
