22

Sc      11.15      22.61      11.83
Sc      14.52      22.62      11.82
O      11.74      22.49      13.82
Sc      12.83      20.38       9.90
O      11.67      24.62      12.00
C      15.37      21.99       8.95
C      15.39      19.60      11.39
O      14.00      22.49      13.83
O      13.92      24.62      12.01
O      10.19      20.78      11.93
O      11.33      19.19      10.80
O      11.27      21.15       8.74
O      10.26      22.78       9.95
O      15.48      20.79      11.89
O      14.34      19.18      10.78
O      14.39      21.18       8.76
O      15.40      22.82       9.94
C      12.86      22.67      14.42
O      12.83      21.88      11.15
C      10.29      21.97       8.95
C      10.27      19.60      11.42
C      12.80      25.17      12.31
