22

Sc      11.14      14.84       2.05
Sc      14.52      14.83       2.05
Sc      12.83      14.28       4.95
O      11.67      13.99       0.23
O      11.73      16.63       1.17
O      13.92      13.99       0.24
O      13.99      16.64       1.16
C      15.37      12.65       4.03
C      15.39      15.97       4.89
O      10.18      15.83       3.59
O      11.33      15.65       5.53
O      11.27      12.89       4.85
O      10.26      13.11       2.84
O      15.48      15.80       3.61
O      14.34      15.64       5.56
O      14.38      12.89       4.83
O      15.40      13.10       2.82
O      12.83      14.62       3.03
C      12.80      13.98      -0.40
C      12.86      17.06       0.71
C      10.29      12.66       4.05
C      10.27      15.98       4.87
