22

C      10.29      13.06      14.60
C      10.27      12.14      11.30
Sc      11.15      10.26      13.70
Sc      14.52      10.27      13.70
O      11.74       9.11      15.34
Sc      12.83      13.05      12.73
O      11.69       8.59      12.59
O      13.99       9.10      15.34
O      13.95       8.60      12.59
O      10.18      11.12      12.08
O      11.32      12.88      11.25
O      11.28      13.64      13.99
O      10.26      11.79      14.82
C      15.37      13.07      14.60
C      15.39      12.15      11.29
O      15.48      11.12      12.07
O      14.34      12.88      11.24
O      14.39      13.64      13.99
C      12.86       8.56      15.67
O      15.40      11.80      14.81
O      12.83      11.21      13.40
C      12.82       7.99      12.44
