156

Cu       7.01       9.34       0.76
Cu       7.29       5.31       7.82
Cu       7.08      13.34       7.97
Cu       1.21      18.59      15.64
Cu       1.14      14.63       8.60
Cu       1.38      22.78       8.50
H       4.85      21.70      15.13
H       0.61      24.19      12.76
H       1.76      25.36      13.52
H       4.69      20.91       6.20
H       0.46      17.43       5.41
H       1.34      17.38       3.84
H       4.35      13.91      11.21
H       0.22      14.56      14.30
H       0.71      13.09      15.21
H       3.47      12.29       1.29
H       6.84      14.16       4.21
H       6.58      15.80       4.89
H       3.69      11.62       9.88
H       7.88       9.95      11.10
H       0.15       8.17      10.99
H       3.73       4.24       4.94
H       7.07       5.82       1.60
H       7.56       4.15       1.08
H       3.60       6.19       1.05
H       7.88       3.87       3.34
H       6.75       2.57       2.77
H       4.08       7.31       9.54
H       5.43      10.29      12.79
H       4.22      11.36      12.01
H       3.22      14.79       4.83
H       7.35      14.76       2.12
H       7.38      13.16       1.06
H       4.31      15.92      15.08
H       0.26      13.15      12.33
H       1.27      11.90      13.15
H       4.59      16.56       6.49
H       0.63      19.83       5.57
H       1.01      19.81       3.80
H       4.78      23.73      11.27
H       1.03      22.55      14.27
H       1.03      23.95      15.41
H       0.17      21.25      12.37
H       8.00      18.76       7.91
H       7.75      16.18      12.50
H       7.98      12.05       3.87
H       0.63       9.29       8.38
H       0.37       6.69       3.85
H       1.58      25.28      11.72
H       5.46      14.47       5.32
H       6.83      14.53      16.30
H       7.04       2.84       4.53
H       5.81      12.03      12.48
H       1.59      22.32      15.95
C       7.20      20.43      14.80
C       6.54      21.40      13.85
C       5.31      21.95      14.17
C       1.57      24.71      12.66
C       7.12      21.26       7.36
C       6.42      19.96       7.06
C       5.16      19.96       6.46
C       1.28      17.86       4.83
C       6.87      14.53      10.51
C       6.13      14.97      11.74
C       4.84      14.52      11.97
C       0.93      13.73      14.36
C       1.09      11.10       1.57
C       1.67      12.16       2.45
C       2.92      12.68       2.15
C       6.09      14.90       4.53
C       1.23      11.83       9.15
C       1.92      10.56       9.53
C       3.26      10.62       9.84
C       7.88       9.09      10.43
C       1.35       5.10       5.84
C       1.98       5.40       4.51
C       3.22       4.86       4.20
C       6.80       4.94       0.99
C       1.25       7.49       1.41
C       1.92       6.52       2.34
C       3.14       5.94       2.01
C       6.96       3.32       3.56
C       1.56       6.80       8.99
C       2.14       8.12       9.36
C       3.49       8.22       9.60
C       5.29      11.14      12.10
C       1.04      13.67       5.88
C       1.57      13.49       4.47
C       2.78      14.09       4.13
C       6.95      13.79       1.83
C       6.83      16.95      14.91
C       6.10      16.12      13.90
C       4.82      15.64      14.16
C       1.08      12.98      13.03
C       7.04      16.24       7.59
C       6.36      17.53       7.21
C       5.10      17.51       6.63
C       1.25      19.39       4.78
C       7.21      22.94      10.43
C       6.53      22.58      11.72
C       5.27      23.10      12.01
C       1.54      23.02      15.12
C       4.65      22.79      13.24
C       7.16      21.71      12.63
C       3.35      23.31      13.53
C       4.50      18.73       6.23
C       7.02      18.75       7.43
C       3.23      18.69       5.62
C       4.18      14.83      13.18
C       6.75      15.79      12.70
C       2.91      14.26      13.41
C       3.49      13.69       2.97
C       0.94      12.58       3.59
C       4.79      14.22       2.74
C       4.14       9.48       9.90
C       1.15       9.28       9.35
C       5.50       9.70      10.22
C       3.81       5.11       2.94
C       1.32       6.23       3.58
C       5.09       4.57       2.65
O       6.60      20.21      15.90
O       0.35      19.91      14.41
O       2.63      23.74      12.51
O       6.45      22.33       7.21
O       0.39      21.16       7.75
O       2.51      17.57       5.54
O       6.25      13.71       9.76
O       8.05      14.99      10.36
O       2.25      14.31      14.57
O       1.71      10.84       0.48
O       7.95      10.56       1.97
O       5.25      15.31       3.40
O       1.86      12.94       9.32
O       8.00      11.71       8.66
O       6.52       8.86       9.94
O       2.06       4.43       6.66
O       0.16       5.53       6.01
O       5.49       4.43       1.38
O       1.96       7.96       0.46
O       0.03       7.77       1.66
O       5.85       4.23       3.69
O       2.22       5.72       9.20
O       0.38       6.86       8.48
O       5.89      10.85      10.83
O       1.79      14.30       6.70
O       7.85      13.14       6.15
O       5.64      13.56       1.96
O       6.15      17.41      15.89
O       8.08      17.12      14.69
O       2.28      13.56      12.46
O       6.33      15.19       7.51
O       0.32      16.33       7.94
O       2.64      19.76       5.08
O       6.56      23.70       9.64
O       0.43      22.46      10.25
O       2.93      23.32      14.78
