18

C      13.32       2.60       4.49
C      13.57       3.64       3.59
C      15.19       1.38       3.58
C      12.18       2.69       5.45
H      16.32       2.34       2.02
C      14.12       1.45       4.47
H      13.93       0.62       5.15
N      16.05       0.18       3.58
O      14.02       5.54       1.53
O      16.06       4.65       1.15
O      17.07       0.21       2.87
H      12.93       4.52       3.59
O      11.63       3.83       5.64
C      14.64       3.55       2.69
O      11.83       1.61       6.04
C      14.92       4.66       1.72
C      15.47       2.42       2.69
O      15.71      -0.78       4.29
