18

O      16.87       4.45      11.46
C      20.37       1.02      10.75
C      18.75       3.27      10.75
O      22.30       0.83       8.69
O      22.11       3.05       8.30
N      17.88       4.48      10.75
C      19.30       1.11      11.65
H      17.62       2.32      12.32
C      19.02       0.00      12.61
O      18.23       5.43      10.04
C      18.47       2.24      11.64
H      20.01       4.04       9.18
H      21.00       0.13      10.74
C      20.62       2.06       9.85
C      21.75       1.97       8.88
C      19.82       3.21       9.86
O      19.91      -0.88      12.81
O      17.88       0.01      13.19
