26

H       0.84       3.41       3.07
H      -4.68       4.45       3.30
H      -4.32       2.47       2.21
H      -3.96       1.50       3.84
H      -6.44       4.08       6.53
H      -4.99       5.03       6.22
H      -4.76       3.47       7.13
H       0.03       6.54       4.55
H       1.55       5.38       4.53
C      -1.85       5.50       6.41
C      -2.50       3.00       3.47
C      -1.19       2.64       3.01
C      -0.14       3.44       3.55
C      -0.43       4.43       4.56
C      -1.73       4.63       5.15
C      -2.80       3.93       4.46
C      -4.28       3.73       4.10
C      -3.88       2.49       3.27
C      -0.98       1.68       1.86
C      -5.33       3.99       6.31
N       0.48       5.58       4.68
O      -0.65       5.90       6.92
O      -3.10       5.74       6.93
O      -2.17       1.23       1.40
O       0.29       1.39       1.39
O      -5.21       3.24       5.09
