25

O      11.37       9.04       5.61
H       9.67       6.65      10.66
H      10.15       6.24       8.25
H      10.69      10.51       7.79
H      10.19      10.74      10.21
H      13.29       7.96       0.19
H      12.28       7.00       2.23
H      12.45      10.93       4.01
H      13.44      11.76       1.89
C       9.90       7.48       9.99
C      10.16       7.25       8.65
C      10.47       8.34       7.81
C      10.47       9.63       8.39
C      10.19       9.76       9.74
C      10.85       8.07       6.46
C      11.65       8.31       4.46
C      13.08       8.60       1.05
C      12.51       8.06       2.18
C      12.25       8.89       3.30
C      12.60      10.25       3.18
C      13.16      10.71       2.00
N       9.91       8.71      10.56
N      10.81       6.88       5.87
N      11.32       7.04       4.61
N      13.42       9.91       0.93
