25

N       3.60      10.38       1.69
N       4.57      12.21       6.37
N       5.07      12.05       7.63
H       6.03      12.10      10.01
H       6.15       8.15       8.26
H       6.95      11.13      12.08
N       7.05       9.17      11.37
H       7.05       7.32      10.42
O       5.11      10.05       6.63
C       3.61      11.61       2.26
C       3.89      11.83       3.59
C       4.22      10.74       4.43
C       4.20       9.45       3.85
C       3.89       9.33       2.50
C       4.60      11.02       5.78
C       5.39      10.78       7.78
C       6.75      10.49      11.22
C       6.23      11.04      10.07
C       5.97      10.20       8.95
C       6.29       8.83       9.09
C       6.80       8.37      10.29
H       3.38      12.44       1.60
H       3.91      12.84       3.99
H       4.43       8.57       4.43
H       3.88       8.35       2.03
