25

O       7.72       2.64      14.80
C       9.23       1.12      10.44
C       8.96       0.87      11.77
C       8.64       1.95      12.62
C       8.65       3.25      12.06
C       8.94       3.40      10.71
C       8.26       1.67      13.97
C       7.45       1.91      15.96
C       6.07       2.25      19.38
C       6.59       1.68      18.24
C       6.88       2.51      17.12
C       6.59       3.89      17.24
C       6.08       4.36      18.44
H       9.47       0.30       9.75
H       8.97      -0.14      12.15
H       8.42       4.12      12.67
H       8.95       4.39      10.26
H       5.84       1.62      20.24
H       6.77       0.61      18.18
H       6.77       4.56      16.41
H       5.85       5.42      18.56
N       9.22       2.36       9.88
N       8.31       0.49      14.56
N       7.80       0.64      15.82
N       5.79       3.58      19.51
