25

O       2.68       7.70       9.71
H       0.37       9.49      14.75
H      -0.08       8.97      12.36
H       4.19       8.39      11.86
H       4.45       8.95      14.26
C       1.19       9.25      14.07
H       0.65       6.80       6.31
H       4.58       6.68       8.11
C       0.94       8.97      12.75
C       2.02       8.63      11.90
C       3.31       8.64      12.46
C       3.47       8.95      13.80
C       1.73       8.25      10.55
C       1.95       7.44       8.56
C       2.27       6.05       5.13
C       1.71       6.59       6.27
C       2.54       6.86       7.39
C       3.90       6.53       7.27
C       4.38       6.00       6.08
H       1.64       5.84       4.26
H       5.43       5.74       5.98
N       2.43       9.24      14.63
N       0.54       8.31       9.96
N       0.69       7.81       8.70
N       3.59       5.74       5.00
