69

H       2.88      12.17       4.25
H       2.36      12.13       5.96
H       4.29      10.78       4.97
H       5.77       8.81       5.10
H       2.34       6.23       4.88
H       0.85       8.18       4.77
H       1.33      13.28       2.50
H       0.59      11.68       2.81
H       0.67      12.73       0.52
H      -0.24      13.08      -1.75
H      -4.00      14.36      -0.10
H      -3.10      13.98       2.21
H      -1.17      13.32       5.20
H      -0.73      11.58       5.18
H      -2.70      12.37       6.48
H       2.81      12.73       8.30
H      -1.16      13.80      10.98
H       0.50      13.38       9.20
H       0.50      15.04       4.49
H       1.34      14.52       5.98
H       1.30      16.84       5.40
H       2.32      19.08       5.56
H       5.96      17.61       3.83
H       4.95      15.33       3.67
C       0.88      12.92       4.58
C       2.04      11.98       4.92
C       2.47       9.60       4.85
C       3.86       9.79       4.95
C       4.69       8.68       5.02
C       4.17       7.37       4.98
C       2.77       7.22       4.89
C       1.93       8.31       4.83
C       5.11       6.24       5.06
C       0.57      12.75       3.08
C      -1.16      13.38       1.51
C      -0.35      13.09       0.40
C      -0.86      13.29      -0.88
C      -2.17      13.76      -1.07
C      -2.98      14.00       0.05
C      -2.48      13.80       1.33
C      -2.70      13.99      -2.43
C      -0.37      12.59       5.42
C      -0.99      12.86       7.73
C      -2.36      12.68       7.47
C      -3.29      12.88       8.49
C      -2.87      13.28       9.77
C      -1.49      13.46      10.01
C      -0.56      13.25       9.01
C       3.31      13.49      10.85
C       1.27      14.37       4.89
C       3.05      15.94       4.49
C       2.31      16.99       5.05
C       2.88      18.25       5.14
C       4.20      18.50       4.70
C       4.94      17.43       4.17
C       4.38      16.16       4.07
C       4.72      19.89       4.80
O       1.56      10.63       4.77
O       4.77       4.97       4.97
O       6.34       6.51       5.23
O      -0.74      13.28       2.82
O      -3.90      14.29      -2.63
O      -1.86      13.81      -3.43
O       0.00      12.68       6.80
O       2.07      13.40      10.68
O       3.79      13.80      12.04
O       2.56      14.67       4.30
O       3.90      20.77       5.17
O       5.97      20.09       4.50
