69

O       3.81       4.77      24.86
O       9.74       3.90      32.56
O      11.03      -2.21      31.76
O      13.12      -1.54      32.41
H      10.05       6.38      32.68
H       9.54       6.41      30.96
H      11.45       7.77      31.94
H      12.93       9.75      31.81
H       9.49      12.32      32.04
H       8.01      10.37      32.15
H       8.48       5.25      34.42
H       7.77       6.87      34.12
H       7.81       5.84      36.41
H       6.89       5.45      38.67
H       3.16       4.16      37.00
H       4.05       4.56      34.70
H       6.01       5.25      31.69
H       6.45       6.98      31.72
H       4.50       6.19      30.42
H       2.85       5.82      28.60
H       6.04       4.77      25.91
H       7.71       5.19      27.70
H       7.68       3.51      32.47
H       8.44       4.02      30.93
H       8.46       1.72      31.49
H       9.47      -0.52      31.36
H      13.12       0.94      33.08
H      12.13       3.23      33.21
C       8.04       5.63      32.34
C       9.21       6.57      32.00
C       9.63       8.94      32.07
C      11.02       8.77      31.96
C      11.85       9.88      31.90
C      11.32      11.18      31.94
C       9.93      11.33      32.03
C       9.09      10.23      32.09
C      12.26      12.32      31.86
C       7.73       5.80      33.84
C       6.00       5.17      35.40
C       6.80       5.46      36.52
C       6.28       5.24      37.80
C       4.98       4.76      37.98
C       4.17       4.52      36.85
C       4.67       4.74      35.58
C       4.44       4.52      39.35
C       6.81       5.97      31.49
C       6.21       5.71      29.17
C       4.84       5.88      29.43
C       3.91       5.67      28.41
C       4.33       5.28      27.13
C       5.71       5.11      26.89
C       6.65       5.32      27.89
C       3.34       5.07      26.05
C       8.43       4.18      32.02
C      10.23       2.62      32.39
C       9.48       1.57      31.85
C      10.05       0.30      31.77
C      11.36       0.06      32.21
C      12.11       1.13      32.73
C      11.55       2.40      32.81
C      11.87      -1.34      32.12
O       8.73       7.92      32.15
O      11.92      13.58      31.95
O      13.49      12.06      31.68
O       6.41       5.28      34.10
O       3.23       4.22      39.54
O       5.27       4.69      40.35
O       7.20       5.89      30.10
O       2.11       5.16      26.23
