869

Dy      17.24       6.08       3.59
Dy      18.99      10.22      26.02
Dy      21.52      15.98      28.54
Dy      18.09       4.57      13.64
Dy      20.47       3.92       5.21
Dy      19.73      13.97      31.04
Dy      18.98      17.68      30.65
Dy       8.83       0.32      28.58
Dy      20.05       7.58      11.56
Dy      27.74      19.16       9.65
Dy      11.91      15.85      27.52
Dy      18.38       7.04      27.93
Dy      30.73      13.72      29.51
Dy      15.29      11.45       8.06
Dy      15.57      13.92      22.35
Dy      14.69       0.81       5.34
Dy      19.01      12.82      23.19
Dy       9.39      -0.06      24.88
Dy      12.15       2.51       7.46
Dy       7.25       2.81      26.25
Dy      18.18      16.51      22.70
Dy      20.98       6.32       8.01
Dy      13.20      14.57      30.79
Dy       2.94       4.77       6.48
Dy      16.43      12.41      32.40
Dy      26.42      15.68       9.74
Dy      20.74      18.15      25.14
Dy      18.39       0.44       4.31
Dy      21.87      12.80      25.77
Dy      13.62      10.91      24.43
Dy      14.68       8.27       9.97
Dy      13.94       4.52       4.95
Dy      15.15       8.02       6.24
Dy      22.06      16.55      32.39
Dy      24.28      18.54      11.11
Dy      21.76       2.64       8.47
Dy      24.84      18.17       7.41
Dy      15.28      18.05      31.68
Dy      15.61       9.63      27.57
Dy      18.52      10.47      29.75
Dy       5.93      -0.67      26.34
Dy      21.05       2.08      12.27
Dy      11.61       1.94       3.60
Dy      15.49       1.98      13.29
Dy      18.06       8.86       8.42
Dy      11.80       5.69      10.22
Dy      12.69      12.17      27.98
Dy      15.21       4.20      16.25
Dy      14.66       5.67      12.80
Dy      12.62      16.41      23.72
Dy      18.46      14.28      19.74
Dy      12.93       0.34      10.85
Zn      23.77       4.91      20.60
Zn       9.90      13.58      15.39
Zn       3.91       9.85       0.00
H      16.12       0.06      29.54
H      23.06       5.83       2.49
H      11.04       6.24      16.67
H       9.89      18.14       0.32
H      12.03       1.50      18.17
H      10.61      12.65      33.50
H      15.72       3.38      21.86
H      22.48       2.47      21.36
H      22.77      11.25      20.52
H      22.31      11.55      34.78
H      13.57      13.37      18.59
H      24.22       1.96      29.01
H      19.48      17.11       4.95
H      27.51      14.26      30.72
H      12.52       6.49      26.46
H      20.03      16.39       9.03
H      17.69       8.55      16.37
H      11.12       7.21       2.74
H      19.94      15.35       0.38
H      28.08       7.35      31.20
H      18.34      14.80       8.76
H      24.54      15.04       3.96
H      10.63       5.71      15.25
H      22.72      13.72       9.54
H      25.49      16.42      14.92
H      23.46      17.52       2.17
H       7.60      16.41       2.64
H      15.79      16.05       9.86
H      20.87      12.82       5.81
H      11.15       2.90      22.07
H       9.78       8.33      32.55
H      13.49      -0.39      21.03
H      14.88       6.54      23.71
H       9.45      16.53       6.98
H      27.26      15.82       2.53
H      22.97       8.39      27.69
H      20.75       4.98      19.68
H      14.41      11.01      17.20
H      19.26       7.48      18.79
H      26.25      12.75      26.56
H       6.16       4.23       5.27
H       8.22      18.84       1.72
H      26.48      12.66       6.48
H      18.98      16.35      12.32
H      10.58      10.97      14.32
H      14.20       7.61      31.66
H      10.95       4.77      26.45
H      22.21      11.47      13.63
H      15.33       3.68      27.23
H      17.49       1.92      29.94
H      21.15      12.00       9.53
H       5.08       3.38      21.48
H       6.38       2.29       8.20
H      18.23      15.16       4.42
H      28.59      15.11      14.52
H      20.35       8.42       1.15
H       9.95       2.92      35.03
H      17.55      18.43       6.45
H      12.92      13.51      16.31
H       2.05       2.84       1.53
H      24.08       4.21      26.02
H      16.73      12.92      14.93
H      12.25       9.34      20.84
H      22.23       8.47      23.63
H      11.71      13.53       9.67
H      11.36       6.94       1.21
H      15.86       7.95      18.49
H      21.64      16.99      17.82
H       6.38      -0.33      17.65
H      13.06      17.12      10.43
H      15.44       3.32      31.57
H      30.12      11.31      34.53
H      10.42       8.45      26.65
H      26.85      15.37      16.47
H      11.32      15.29       6.46
H      24.18       3.47      18.18
H      14.93       1.09      20.02
H      20.59      11.92       2.48
H      21.31      11.15      16.25
H       6.45      10.31       7.97
H      22.63      12.25      19.32
H       6.41       2.67      33.46
H      23.25      10.04       9.34
H      13.64       2.09      26.96
H      16.06      10.31       1.49
H      23.09       7.51      21.67
H       7.60      11.34      11.41
H      18.79      11.95      12.28
H      29.62      17.29      24.87
H      10.61      15.73      19.95
H      16.63       0.64      25.63
H       8.18       2.07      21.07
H       5.55       1.41      22.50
H      11.46       7.01      22.36
H      23.22      18.49      17.04
H      18.73      17.40      15.97
H      17.61       8.18      34.50
H       7.19       5.83      29.51
H      13.52      18.45       6.25
H      15.98       9.94      19.62
H      22.23      14.62       6.56
H      10.68      18.25      14.07
H      20.33      12.19      12.10
H      29.66      18.43      28.97
H      10.90       7.24      15.47
H       9.59      14.28       9.97
H      21.98       9.63       0.14
H      11.69       8.86      35.85
H       9.09       6.62      26.22
H      18.83       7.81      33.59
H      13.91       6.76      22.51
H      12.26       4.08      20.36
H      21.42       9.14      15.15
H      17.81      10.54      17.50
H      28.43      10.06      28.55
H      14.84      10.68       2.40
H      22.99       0.24      21.92
H       3.55       7.18       1.46
H      24.58      11.87       9.78
H      15.37      18.22      19.51
H      20.10       5.11      17.41
H      14.69       2.14      23.67
H      22.35       3.20      29.53
H      10.18       8.04       6.42
H      10.45      -0.01      18.95
H       8.42       5.93      19.98
H      12.36       7.34      19.74
H      11.44      10.02      12.36
H      23.04      12.78      20.74
H       9.69      12.24       8.36
H      19.53      17.44       1.53
H       6.82       3.12      19.53
H      16.18      16.57       6.05
H      13.32      10.07      34.84
H      13.08       6.57      33.51
H       6.98      15.62       3.84
H      14.17       9.35      15.69
H      18.82       9.17      34.37
H      17.04      17.85      10.37
H      10.83      17.89      10.88
H      20.61       1.37      25.56
H      13.34       6.29      23.89
H      11.19      16.02      14.63
H       9.13       3.44      32.03
H       5.90       0.23      12.07
H      10.20       8.47       4.92
H       5.59      11.14       4.79
H      27.77      18.26      23.92
H      23.78       0.35      35.67
H      20.15       0.04      29.74
H      10.10       6.34       1.93
H      23.89      10.16       3.44
H      26.07       2.08      33.35
H      21.41      14.41      15.63
H      19.76      11.73      13.49
H      27.22       8.18      28.02
H      26.07       7.15      24.58
H      23.57      12.15      34.06
H      21.36       4.21      22.22
H      26.19      13.82      14.25
H       7.48       4.66      21.74
H       4.05       1.20      11.12
H      17.88       2.44      26.13
H      22.52      15.59      13.92
H       8.68       9.28      11.64
H      20.01       5.17      23.96
H      16.94       5.57      21.06
H      20.18      18.88      14.96
H      26.69       2.87      32.15
H       8.29       3.77       5.96
H      27.29      16.20      27.80
H      14.85       9.32       1.62
H      12.31      14.28      13.77
H      17.95      15.10      14.13
H      14.19       1.38      31.05
H      11.44       3.87      29.43
H      25.25      12.56      16.01
H      12.80       5.67      30.18
H      21.96       4.95      26.32
H      19.47      10.88       4.33
H      25.45      -0.35      34.27
H      23.84      11.49      30.69
H       7.42       5.74       9.43
H      19.50       9.14      20.30
H       8.12       1.27       9.17
H      28.35      12.46      27.38
H       5.32       6.03       8.61
H      25.38      14.72      30.03
H      23.72      15.57       0.96
H      23.98       6.25      27.63
H      23.06       2.76      16.04
H       8.91       5.03      33.60
H      27.29      18.81      18.34
H      13.66      13.31      12.04
H      10.78       9.44      30.79
H      23.47      10.01      31.07
H      23.49      10.45      29.57
H       8.16       0.85      35.89
H      16.56      11.39      13.27
H      24.76      13.46       2.39
H      22.84       0.59      25.11
H      31.62      15.65      34.46
H      17.11       7.10      22.72
H      10.21       0.97      33.82
H      25.55      17.22      26.82
H      22.55      11.27      33.25
H      25.51      17.64       0.10
H      28.12      17.07      13.49
H      13.73       3.13      35.61
H       5.24       8.43       7.44
H      23.26      12.64      11.91
H       9.83       7.00       5.30
H      14.14       1.04      34.46
H      24.99       9.21      24.35
H       4.01       0.06       7.03
H      10.41       5.85      24.08
H      10.70      10.10       8.30
H      18.30       0.26      16.48
H      22.89       9.05       5.20
H       9.49      15.02      17.82
C      13.05      15.20      20.68
C      14.53       0.22       8.52
C      19.53       7.35      14.76
C      20.55      13.69       5.73
C      23.24      18.61      27.28
C      27.26      13.98      29.87
C      22.26       2.27      29.47
C       6.41       4.51       6.12
C       8.87       5.09      23.05
C      22.81      18.68      17.86
C      19.21      14.54       8.95
C      24.61      17.31      31.45
C       9.54       8.43      26.94
C       5.01       1.88       9.54
C      28.66      16.61      26.45
C      30.85      17.01      35.66
C      23.29      10.74      30.46
C      20.37      10.71       4.16
C      23.67       0.88      21.87
C      23.90       7.82       8.10
C      23.76       7.44       1.42
C      22.11       4.06      26.13
C      23.00      10.32       3.61
C      12.35      -0.53      33.25
C       7.77       1.56      20.41
C      23.21      10.36      25.93
C      13.30       7.78      31.83
C       8.96       9.49      27.63
C      23.84      -0.55      35.45
C      10.86      -0.19      18.14
C      19.56      13.17       9.08
C      22.71      17.12       1.80
C      24.42      -0.70      28.44
C      16.50       0.51      28.83
C      26.91      18.32      17.65
C      19.84      10.28      12.14
C      12.79       5.61      26.61
C      25.75      18.31      15.52
C      15.24       9.00      13.28
C      21.86      17.74      18.32
C      23.27       0.19      28.95
C      12.82       2.36      23.02
C      15.40       9.96       2.08
C      11.41      16.22       6.53
C      14.87      11.08      16.39
C      11.03       6.57       2.03
C      21.83      13.21      33.60
C      20.82       4.57      17.65
C      23.37       2.23      21.49
C      23.71       2.31      25.68
C      28.79      17.23      25.29
C      12.41      13.78      17.04
C      15.39      10.08      14.30
C      16.14      16.55       9.15
C      22.00      -0.36      29.13
C      10.80       2.56      34.90
C      10.87      11.88      33.96
C      21.42      14.78       6.14
C      20.65      15.83       0.75
C      26.36      17.20      26.37
C      20.57      10.59      16.29
C      14.75       0.29      19.58
C       4.85       9.12       7.94
C      21.26       4.71      18.95
C      22.55       6.99      22.22
C      21.31       3.66      16.57
C      14.66       3.43      31.09
C       1.04       1.10       1.83
C      26.21      19.03      16.49
C      22.80       6.60       2.03
C      24.83      12.60      15.18
C      10.46       8.13      10.06
C      11.27       8.85      31.31
C       8.10       3.34      29.48
C      18.53      12.14       8.90
C      25.43       7.40      25.20
C      29.87      15.99      27.08
C      12.21      11.54      34.04
C      19.01      15.06       4.91
C      18.31       1.56      11.88
C      17.53       1.94      26.84
C      21.50       5.08      22.49
C      19.14      18.27      27.47
C       6.24       1.87       9.02
C      14.17       2.51      23.00
C      14.14      11.13      21.23
C      27.74      12.91      27.91
C      23.64      12.65      12.76
C      21.03       6.88      23.99
C      12.23       1.50      24.06
C      12.20       0.77      34.01
C      12.34      16.55      10.32
C      12.60       8.62      31.06
C      16.40      11.58      24.73
C      15.12       8.22      18.98
C      20.98      16.08       5.86
C      19.50      15.98      12.99
C      10.30      16.26      14.50
C      26.62      16.26      16.57
C      21.59      15.53      13.93
C      24.71       9.00       8.36
C      22.68       1.46      25.43
C       6.02       0.69      11.27
C      20.20      17.07      20.01
C      21.44      16.99      11.93
C      12.96      12.84      12.42
C      12.62       6.14      15.38
C      21.78      11.14      30.55
C      14.46       3.94      27.04
C      21.33       1.94      25.67
C       9.77      10.67      27.89
C       6.76       0.17      18.34
C      13.57       5.66       7.94
C      25.60      14.12       5.37
C      16.36      16.83       6.92
C      11.46       9.61      35.34
C      14.00       6.84      23.46
C      13.12       4.80      30.26
C      12.71      18.04       6.44
C       8.73       7.32      26.70
C      12.64      11.61      12.00
C       7.70       4.24       6.51
C       9.83      19.04       0.54
C      27.65      17.80      24.72
C      25.59      13.80      28.23
C      24.80      13.40      12.95
C      12.40       0.53      16.47
C      20.71       5.65      23.57
C       8.27       5.13      21.88
C      13.01       9.09      20.38
C      23.59       8.17      27.03
C      16.59      15.31      31.42
C      17.17      17.98       7.17
C      27.43      16.62      26.98
C      12.49      16.90      33.14
C      10.38       7.75       5.53
C      11.67      18.85       6.86
C      18.55      10.27      17.01
C      11.56      14.43       9.86
C       5.93       5.58       8.08
C       5.78       2.27      32.87
C      17.55       7.24      21.91
C      10.27      16.95       6.87
C       5.57      10.27       8.24
C      25.02      14.27       4.15
C      19.39       1.08       6.94
C      15.20       9.44      19.65
C       7.46      -0.54      19.50
C      19.67      11.65      12.54
C      20.35       6.20       2.63
C      16.78       0.85      26.51
C      21.07      11.36       3.05
C      17.08       3.18       4.57
C      13.43       2.99      26.86
C      25.97      14.25      29.48
C      11.81       0.75      17.67
C       8.36       4.25      24.17
C      20.88      12.87       9.38
C       4.70       1.56      22.14
C       3.78       0.56      22.15
C      11.17       6.35      15.72
C      16.26       0.07      27.53
C      10.40      18.30       7.04
C      13.47       1.42      15.98
C       4.40       2.76      21.62
C      18.47       9.05      16.34
C      12.69       2.41      30.13
C      11.05      15.23      19.30
C      21.74      -0.41      13.27
C      25.31      14.24      11.82
C      28.97      16.93      13.85
C       9.75       9.45       9.92
C      10.99      17.03      10.56
C      20.31      15.29      25.17
C      12.85      13.92      18.34
C      10.28      14.89      10.04
C       8.07       4.37      30.62
C      21.47      17.72       1.98
C       8.86       9.83      10.92
C      20.66       9.40      15.61
C      26.26      11.95       4.61
C      21.07       9.86       4.93
C      18.87      15.21      14.10
C      27.89      16.22       3.12
C      23.92       9.04      26.07
C      28.10       8.22      27.75
C       4.88       1.26      10.70
C       6.37       0.93      32.30
C      18.92      18.20      16.41
C      25.08      18.90      14.35
C      20.38       4.64      10.92
C      22.87      15.93       1.09
C      28.82       9.37      28.05
C      18.43       9.49      22.71
C      24.94      11.17       9.29
C       9.06       1.18       4.54
C       8.59      -0.41      21.64
C      13.36       3.20      10.82
C      26.17      12.87       5.63
C      15.34      11.95      29.77
C      19.53       8.62      15.65
C      29.89      17.93      13.85
C       7.50       5.62      30.36
C      18.27       8.53      33.91
C      20.96       0.45      29.56
C       7.41       6.54      31.38
C      18.94       8.42      20.50
C      13.28      11.01      10.78
C      22.62       3.25      16.69
C      24.81       8.66      25.07
C      13.84      -0.58      20.19
C      14.28      17.40      29.06
C      21.81      13.93       9.46
C      13.29       1.39      34.54
C      10.38      14.80      17.96
C      20.62       3.28      15.31
C      11.12      11.49      13.77
C      15.14       6.34      27.09
C      13.23       9.39      29.91
C       7.05       2.22      19.42
C      22.40       9.64       4.68
C      14.11       5.32      26.91
C      11.89       7.34       5.44
C      27.30      17.56       3.69
C      17.58       9.22      32.71
C      29.27      15.72      14.37
C       3.80       2.50       8.91
C      21.05      12.35      20.62
C      16.09       9.27       3.28
C       7.17       5.41       8.59
C      25.90      16.93      15.58
C       2.82       1.48       0.33
C      11.69      10.86      12.64
C      20.44       9.10       6.08
C      22.21       8.88       0.65
C       8.54      16.69      10.38
C      10.96       1.37      34.20
C      23.29       3.69      18.03
C      10.03       5.84      23.23
C      20.39       7.48      25.21
C      21.18       1.59       2.85
C      25.40      13.36      14.12
C       7.31       1.29       9.62
C       8.24      11.09      10.79
C      13.32      12.29      33.36
C      21.46       6.95       1.95
C      11.93      18.90      22.72
C      16.12      11.24      14.08
C      10.00      17.61      14.12
C       1.99       1.95       1.26
C      23.01      11.92      13.77
C      13.10       7.90      19.70
C      16.19      12.18      15.09
C      11.84       5.28       2.39
C      22.50      12.14      20.27
C       9.91      11.05      34.57
C      22.64      11.92      33.96
C      31.68      16.54      34.73
C      10.67       8.17      32.38
C      25.13       1.80      25.61
C      21.27      17.95      19.53
C      12.60       7.13      32.94
C      20.38      17.10       1.45
C      20.24      15.50       9.13
C      13.89       2.23      30.79
C      20.85      16.13      12.97
C      25.57      15.15       6.51
C      17.27       6.91      11.27
C       8.53       5.18      32.77
C       8.08       4.69       7.76
C       8.86      19.44       1.41
C      10.43      -0.12       8.71
C       8.84       5.89      20.81
C      26.50      13.08      27.40
C      21.32      19.02       2.74
C      13.29      13.85      25.07
C      25.14      13.31       3.22
C      20.90      14.81      14.97
C      17.31       1.66      29.07
C      24.13      10.06       9.05
C      16.89      17.64       9.48
C      11.86       4.56      26.53
C      21.23       8.12       1.23
C      14.80       3.28      21.89
C      23.40       1.54      29.12
C      10.66       6.57      22.22
C      12.36      14.83      19.42
C      14.73      10.07      15.49
C       9.96      16.17      10.31
C      12.44      10.36      34.76
C      17.48       6.31      20.90
C       7.92       0.18      20.48
C       9.25      19.19       7.55
C      17.41      18.42       8.46
C      10.08      10.32       8.96
C      12.76       3.68      21.03
C      18.28       8.40      21.69
C      15.36      16.93      24.11
C       9.44       4.41       8.29
C      13.83       8.21      23.85
C      12.17      13.40      13.50
C      11.81       1.25      29.80
C      19.83      19.07      15.80
C      20.10      12.83      28.05
C      21.86      17.24       6.19
C      24.81      -0.95      34.58
C      32.63      17.39      34.16
C      24.23      14.08      27.70
C       9.44      11.60       8.99
C      14.14       9.87      20.35
C       8.65       4.22      31.84
C      18.80       7.41      19.60
C      19.78      16.26       5.20
C      12.08       2.95      22.06
C      13.02       2.66      35.25
C      12.25       3.71      29.85
C      24.23       6.89      27.00
C      23.39       3.60      25.95
C      18.33       6.54       6.22
C      21.98       7.62      23.35
N      21.47      15.19       9.43
N      11.06      14.11      17.01
N      24.27       3.11      21.31
N      12.65      16.75       6.28
N      12.20       3.30      26.56
N      23.47       8.55       0.79
N      10.20       9.94      35.20
N      18.06       6.35      19.78
N      25.79      12.14       3.42
N       7.88       6.35      32.57
N      12.54      15.25       9.95
N      22.37      11.17       2.82
N      11.81       3.13      35.36
N      28.17      13.35      29.16
N      23.64      11.91      14.96
N       7.50       7.18      27.10
N      19.54      11.02      17.00
N      14.06       3.81      20.98
N       9.40      15.38      14.68
N      21.86      15.36       0.63
N      11.28      12.72      14.09
N      15.35       0.09      18.47
N       5.50       5.14       6.83
N      26.98      16.95      17.69
N      15.85      16.12       7.95
N      26.17      11.31       8.89
N      30.84      18.34      35.98
N      22.61       4.38      18.99
N       8.56      11.90       9.83
N      19.32      13.88       5.27
N      11.30       7.32      33.17
N      18.32      18.40      17.52
N      14.35       4.61      30.73
N      14.13       7.47      18.99
N      19.61      14.68      15.01
N      26.43      17.75      25.20
N      21.12       3.24      26.04
N      22.39       5.77      21.90
N      17.82       2.37      28.04
N      21.02       1.74      29.71
N       6.69       1.54      18.30
N      25.11       6.59      26.16
N       7.24       0.74      10.79
N      15.61      12.14      16.21
N      10.03       6.58      21.03
N       2.83       0.14       0.01
O      17.38       8.57      26.41
O      16.15       7.53       8.26
O      17.08       1.13      11.76
O      16.86       8.26       2.90
O      21.50       2.56       3.55
O      13.89       2.44       3.84
O      19.37      12.71      29.08
O      14.47      17.38      24.89
O      14.18       9.33       7.93
O      19.63      17.43      21.09
O       2.71       2.39       9.52
O       9.38       2.35       4.38
O       9.81       4.99       9.30
O      11.27      15.40      29.73
O      16.42      11.38      30.26
O      13.48      14.32      28.49
O      16.59      17.36      24.23
O      23.04      17.77      28.21
O       7.32       3.53      23.91
O      10.35       7.44      11.09
O      21.03      13.71      27.95
O      13.88      16.76      30.10
O      23.86      13.50      26.69
O      18.61      12.00      31.64
O      20.28       7.27      13.81
O       7.93       3.68      28.28
O      11.17       7.74       9.08
O      23.56      14.99      28.31
O      17.02      16.50      31.09
O      22.71       4.80       8.44
O      18.34       9.17      23.94
O      27.71      18.27       4.74
O      13.81      17.20      27.89
O      14.02       2.27      11.41
O      26.93      17.43       8.26
O      12.76       8.63      24.15
O      22.75      18.55      26.18
O      12.37      15.88      21.53
O      20.39      13.49      33.31
O       9.88       0.26       4.20
O      13.49       5.76      16.14
O      20.20       8.22       9.31
O      16.80       0.35      14.50
O      12.62      10.42      29.54
O       8.72       0.26      22.69
O      13.61      17.52      33.08
O      12.42       2.85      10.01
O      11.00      -0.87      26.35
O      17.62      -0.24       9.28
O      21.50      18.33       5.74
O      13.71       2.47      16.63
O      12.38       1.02       5.61
O      18.67       2.38      12.75
O      23.79      18.23      31.79
O      22.40       3.09       6.26
O      16.05      18.72      26.71
O      19.78      16.05      32.15
O      22.67      19.36       9.64
O      13.27       7.07      11.47
O       6.74       1.06      27.73
O      18.98      18.50      23.62
O      13.15      18.62      22.87
O      24.80      14.20      10.75
O      17.63      11.82      24.88
O      15.73      10.91      25.59
O      16.78       3.08      14.93
O      13.48      -1.02      33.20
O      19.96      16.02      19.36
O      17.52      10.95      27.73
O      16.30       4.17       4.61
O      18.31       3.35       4.21
O      14.30       5.78       6.91
O      25.75      17.64      30.86
O      16.58       9.87       6.87
O      24.95      18.23      13.31
O      20.18      12.72      19.85
O      16.87      18.14      21.49
O      13.47      10.27      26.68
O      17.94       7.58      10.40
O      12.82       6.27      14.10
O      14.74       7.56      26.99
O      20.06       0.96       2.92
O      19.86       1.28       8.10
O      14.88       8.94      23.79
O      24.29      16.14      31.61
O      18.57      10.63      22.31
O       8.27       2.15      29.91
O      22.41      19.46       3.25
O      16.35       6.02      27.35
O      20.80       3.50      10.42
O      15.34       0.21       7.54
O      13.39      11.22      22.18
O      22.84      17.01       6.91
O      19.20       1.11      11.10
O      16.29       9.92       9.58
O      25.40      16.34       6.08
O      13.28       5.00       2.68
O      20.65       8.67      25.45
O       9.25       1.58      26.58
O      19.38      15.68      29.44
O      10.96      13.69      27.55
O      14.31       8.99      29.49
O      19.49       9.16      28.07
O      15.00      16.10      23.24
O      11.02      18.07      23.02
O       7.92       0.85       5.13
O      30.96      16.10      26.47
O      21.63       0.96      10.24
O      29.36      18.55       7.98
O      14.21       3.76      14.11
O      13.58       4.44      11.06
O      19.64       6.76      25.95
O      12.64       4.78       8.04
O      20.19      19.51       2.79
O      21.51      12.31      30.93
O      12.04      17.53      25.75
O      17.95       6.46      12.26
O      13.02       0.72      24.67
O      24.35      18.96       5.20
O      10.63       0.72       7.78
O      11.26      -0.97      32.74
O      15.10       7.85      13.68
O      11.01       1.55      24.24
O      14.29       2.81       6.55
O      32.04      17.77      28.47
O      18.24       9.20      31.67
O      10.83       1.48      29.08
O      28.74      15.87      10.06
O      26.47      17.71      11.02
O      20.85      12.22      21.89
O       7.35       0.49      32.90
O      20.09      14.05      24.93
O      21.05       8.07       6.45
O      20.06       4.68      12.13
O      20.65      17.77      11.32
O      17.32      12.47       8.65
O       1.63       0.72       7.53
O      12.84       8.18       5.71
O      23.32      11.05      24.91
O       7.20       0.78      24.97
O      15.33       9.32      12.05
O      17.25       7.11       5.73
O      19.65      16.22      24.58
O      15.36      15.13      31.78
O      10.92      -0.06       9.81
O      15.21      18.29      29.33
O      24.42      16.90       9.41
O      12.96      13.28      32.74
O      17.37      14.48      23.69
O      11.85       3.51       5.37
O       4.31      -0.06      28.01
O      21.82      14.98      30.62
O      10.89      10.78      27.32
O      16.89      15.41      21.07
O       4.93       2.62      25.93
O      18.90       5.71       5.40
O      20.71       5.21       3.25
O       9.28      11.57      28.63
O      14.44      11.90      33.45
O      17.52      12.88      21.41
O      20.40      11.42      24.52
O       8.87       4.29      25.24
O      17.37      14.32      31.38
O      19.36       9.50       6.50
O      13.61      13.80      23.86
O      29.45      17.91      10.68
O      15.06       6.49       4.35
O       5.96       0.22      31.25
O      12.87      14.99      25.57
O       9.32      -0.47      30.79
O      18.71       6.74       7.36
O      16.81      10.22      33.09
O      12.16       6.18       5.06
O      14.98      12.04      20.90
O      26.35      14.96      12.08
O      25.74      14.81       7.71
O      20.90       9.85      11.84
O      15.43       9.29       4.32
O      16.04       6.67      11.11
O      13.02       9.82      10.54
O      19.22       6.59       2.54
O      22.66      16.94      11.75
O      14.96      11.75      28.63
O      22.50      10.74      26.91
O      20.83      10.30      30.28
O      13.63       6.47       8.92
O       4.21       0.58      25.31
O      12.17      15.93      32.45
O      20.52      -0.13      13.12
O      10.11       3.50       7.68
O      16.30       4.01      12.30
O      16.15       5.61      14.58
O      20.30       5.67      10.21
O      20.04      12.02      27.07
O      19.79       1.73       5.89
O      15.72      12.03      23.73
O      14.10      14.65      20.82
O      24.39       6.91       7.36
O      22.65       0.42      12.97
O      19.57       3.84      15.17
O      13.40       0.79       8.50
O      21.93       5.63       5.90
O      14.03      11.72      10.04
O      22.78       7.70       8.67
O      18.69       6.45      15.09
O      16.65       1.99       4.90
O      14.77      12.78      30.60
O       3.95       3.08       7.81
O      11.33       3.95       2.59
O      21.25      15.64      25.98
O      12.17       0.15      30.25
O      18.46       0.20       6.67
O      21.30       2.61      14.46
O      18.78       9.55      12.20
O      17.09       8.62      29.12
O      21.29      17.47      30.38
O      11.74      12.85      30.10
O      18.33      18.28      28.45
O      18.92      10.93       9.00
O      29.72      15.41      28.18
O      22.34      14.54      33.40
O      26.32      18.00       3.10
O      20.19       4.17       7.50
O      20.27      17.70      27.49
O      19.46      14.72      21.88
O      14.04       1.05      14.90
O      13.37      12.82      25.78
O      14.69      -0.01      12.37
