17

Ni       7.95       4.12       5.27
O       6.17       6.56       2.37
Ni       6.18       6.48       4.53
O       4.21       6.14       4.54
O       5.12       8.05       5.09
O       7.90       7.34       4.68
O       6.88       4.85       3.57
C       9.02       6.78       4.91
C       6.99       4.87       7.38
C       8.24       1.80       4.97
O       7.98       4.09       7.40
O       9.20       2.63       4.75
O       7.10       2.30       5.27
O       9.25       5.55       5.15
O       6.53       5.25       6.22
C       6.64       5.39       2.40
C       4.04       7.37       4.85
