496

H       0.40       5.98      18.65
H       2.27       2.50      21.30
H       0.59       6.44      22.23
H       2.79       6.29      19.52
H       0.76       7.98      23.07
H       7.02       7.17      20.95
H       7.40       7.27      22.67
H       6.99       8.74      21.76
H       0.85      32.61      22.12
H       2.15      38.28      21.30
H       0.50      34.33      22.04
H       3.40      36.29      20.27
H       7.28      33.11      22.14
H       7.13      34.84      21.79
H       1.05       6.46      23.93
H       4.65       9.42      24.92
H       5.95       8.27      26.89
H       5.88       8.26      29.24
H       7.78      30.09      23.56
H       0.82      33.59      23.60
H       4.71      31.05      24.13
H       7.21      34.29      23.47
H       5.85      32.72      27.01
H       5.92      32.72      29.36
H       2.24       2.61      35.00
H       3.58       4.56      36.09
H       1.23       7.75      35.48
H       0.82       6.84      34.00
H       7.17       5.61      33.15
H       7.62       7.32      33.15
H       7.46       6.46      34.68
H       1.19       8.56      33.91
H       7.79      10.92      32.70
H       5.42      10.02      33.05
H       7.97      29.98      32.70
H       0.94      33.09      33.01
H       4.65      31.73      31.36
H       0.80      34.79      33.46
H       0.87      33.54      34.72
H       2.23      38.39      34.99
H       3.54      36.22      36.21
H       7.55      33.71      33.02
H       7.20      35.31      33.65
H       7.34      33.94      34.76
H       8.46      14.06      22.12
H      14.89      13.52      22.06
H      15.24      15.25      22.02
H       8.62      15.79      21.79
H      13.61      19.22      21.30
H      12.36      17.24      20.28
H      13.50      21.56      21.30
H       8.78      27.80      21.76
H       8.75      26.23      20.95
H       8.37      26.33      22.68
H      15.37      25.05      18.66
H      15.17      25.50      22.23
H      15.01      27.04      23.07
H      12.98      25.36      19.52
H       7.99      11.02      23.56
H       8.54      15.23      23.46
H       9.91      13.66      27.02
H       9.84      13.66      29.37
H      14.93      14.47      23.56
H      10.98      11.93      24.01
H       9.82      27.33      26.89
H       9.88      27.33      29.24
H      14.72      25.52      23.94
H      11.12      28.49      24.92
H       8.21      14.65      33.03
H       8.42      14.87      34.77
H      14.82      14.03      33.01
H      11.11      12.66      31.36
H      14.89      14.47      34.72
H       8.56      16.25      33.66
H      14.96      15.73      33.46
H      15.56      15.92      37.63
H      13.52      19.32      35.00
H      12.22      17.15      36.21
H      13.52      21.67      35.01
H       8.59      24.68      33.15
H       8.14      26.39      33.15
H      10.34      29.09      33.05
H       8.30      25.52      34.68
H      12.18      23.62      36.10
H      14.53      26.81      35.48
H      14.57      27.63      33.91
H      14.94      25.91      34.00
H      15.51      25.06      37.72
H      16.54      14.16       1.74
H      16.50      13.34       3.31
H      16.13      15.07       3.22
H      23.10      10.99       4.52
H      22.93      14.59       4.07
H      20.73      11.89       4.17
H      22.78      15.45       2.54
H      21.19      13.65       7.98
H      17.55      19.30       2.21
H      18.89      17.35       1.12
H      17.55      21.65       2.22
H      22.48      16.30       4.07
H      18.85      23.82       1.01
H      16.18      26.51       2.49
H      16.26      26.95       4.20
H      16.12      25.25       3.75
H      19.97      28.31       5.85
H      22.51      24.73       3.56
H      22.86      26.33       4.18
H      22.65      26.10       2.45
H      21.24      27.31       7.84
H      16.07      13.93      14.15
H      19.96      12.48      12.30
H      16.36      15.44      13.28
H      15.91      15.47      14.99
H      21.26      13.64      10.33
H      22.71      14.64      14.54
H      22.30      13.17      15.46
H      16.15      26.52      13.68
H      20.12      29.06      13.26
H      15.84      25.73      15.21
H      16.19      27.46      15.18
H      21.16      27.31      10.19
H      22.54      25.75      13.75
H      23.07      29.95      13.65
H      22.62      26.90      15.10
H      22.46      25.17      15.42
H      18.10      15.61      17.70
H      22.33      14.74      16.27
H      15.71      15.92      18.57
H      17.58      19.40      15.92
H      17.47      21.75      15.92
H      18.72      23.72      16.94
H      23.88       5.66       3.56
H      23.53       7.26       4.19
H      23.73       7.03       2.45
H      28.84       2.59       2.22
H      27.54       4.76       1.01
H      30.21       7.44       2.50
H      30.27       6.18       3.76
H      30.13       7.88       4.20
H      25.15       8.25       7.85
H      26.42       9.25       5.86
H      23.29      30.06       4.52
H      23.46      33.65       4.07
H      25.66      30.95       4.17
H      23.91      35.36       4.07
H      23.61      34.51       2.54
H      25.20      32.71       7.98
H      29.85      33.23       1.74
H      29.89      32.41       3.31
H      28.84      38.37       2.21
H      30.26      34.14       3.22
H      27.50      36.42       1.12
H      23.86       6.68      13.76
H      23.78       7.85      15.09
H      23.94       6.12      15.43
H      30.25       7.41      13.65
H      30.56       6.65      15.19
H      25.22       8.25      10.20
H      23.30      10.88      13.65
H      26.32       9.96      13.16
H      30.21       8.38      15.13
H      25.12      32.70      10.33
H      23.67      33.71      14.55
H      24.08      32.23      15.46
H      30.31      32.99      14.16
H      26.43      31.55      12.30
H      30.02      34.51      13.29
H      30.48      34.53      15.00
H      28.92       2.69      15.92
H      27.67       4.67      16.95
H      24.05      33.81      16.27
H      28.80      38.47      15.92
H      30.67      34.99      18.57
H      28.28      34.68      17.70
H      30.87       5.99      37.72
H      30.82      34.98      37.63
C       0.37       4.96      18.63
C       1.65       0.65      20.56
C       1.12       4.24      19.60
C       1.03       2.82      19.60
C       1.71       2.05      20.57
C       1.17       6.97      22.98
C       2.61       7.06      22.65
C       5.34       7.50      22.23
C       3.24       6.53      21.50
C       2.60       5.92      20.42
C       6.77       7.68      21.88
C       1.10      33.58      22.54
C       0.88      36.65      19.55
C       0.92      38.08      19.58
C       2.56      33.80      22.43
C       5.36      33.90      22.53
C       3.26      34.77      21.65
C       2.75      35.70      20.74
C       6.83      34.04      22.47
C       4.71       8.06      23.38
C       5.27       8.92      24.32
C       6.43       8.99      28.78
C       6.46       9.00      27.38
C       7.89      10.95      28.85
C       7.92      10.96      27.42
C       7.18       9.99      26.67
C       7.19      10.02      25.24
C       7.13       9.96      29.54
C       7.87      30.01      28.85
C       7.84      30.02      27.41
C       7.79      30.06      24.59
C       4.67      32.92      23.28
C       5.24      31.89      24.03
C       6.43      31.98      28.88
C       7.04      31.02      25.30
C       7.09      31.01      26.72
C       6.39      31.99      27.48
C       7.14      30.99      29.59
C       1.03       4.29      36.75
C       1.00       2.86      36.72
C       1.71       2.13      35.74
C       1.70       0.73      35.73
C       2.96       5.17      35.62
C       3.51       6.13      34.76
C       2.87       7.28      34.22
C       1.45       7.63      34.41
C       7.04       6.56      33.68
C       5.60       6.88      33.77
C       4.96       8.04      33.26
C       5.60       9.12      32.66
C       7.06       9.96      30.96
C       7.80      10.93      31.67
C       7.95      30.00      31.67
C       4.81      33.13      32.86
C       5.31      32.19      31.94
C       1.25      33.84      33.75
C       1.00      36.70      36.70
C       0.99      38.12      36.70
C       3.43      34.86      34.65
C       2.72      33.97      33.80
C       2.90      35.73      35.61
C       7.15      30.96      31.02
C       5.52      34.03      33.70
C       6.98      34.25      33.78
C      10.39      14.84      22.51
C       8.92      14.99      22.47
C      14.64      14.49      22.50
C      13.18      14.71      22.40
C      11.07      13.84      23.24
C      15.52      21.20      18.62
C      15.56      19.77      18.60
C      14.84      19.01      19.58
C      14.87      17.58      19.55
C      12.50      15.70      21.64
C      13.01      16.64      20.74
C      14.74      21.89      19.60
C      14.05      21.11      20.57
C      14.11      19.71      20.56
C      10.43      26.56      22.23
C       9.00      26.74      21.89
C      15.39      24.02      18.63
C      14.65      23.31      19.60
C      14.60      26.04      22.98
C      13.15      26.12      22.65
C      12.52      25.59      21.50
C      13.16      24.98      20.43
C       9.33      12.92      28.88
C       7.98      10.99      24.59
C       8.73      11.95      25.30
C       8.68      11.95      26.72
C       9.37      12.92      27.48
C       8.62      11.93      29.60
C      10.50      12.80      23.97
C       9.33      28.06      28.78
C       9.30      28.07      27.38
C      10.50      27.99      24.32
C       8.58      29.05      26.67
C       8.58      29.09      25.24
C       8.63      29.02      29.54
C      11.06      27.12      23.38
C       8.60      11.90      31.02
C      10.45      13.13      31.95
C      10.24      14.97      33.71
C       8.78      15.18      33.79
C      10.95      14.06      32.87
C      14.51      14.77      33.75
C      13.04      14.90      33.80
C      12.33      15.79      34.66
C      14.77      19.05      36.70
C      14.76      17.63      36.70
C      15.55      16.95      37.65
C      12.86      16.67      35.62
C      15.54      19.77      37.67
C      14.06      19.79      35.73
C      15.53      21.21      37.68
C      14.76      21.93      36.72
C      14.05      21.20      35.74
C       8.72      25.62      33.68
C      10.16      25.94      33.77
C      10.16      28.19      32.66
C       8.70      29.03      30.96
C      10.79      27.10      33.26
C      14.73      23.35      36.75
C      12.80      24.24      35.62
C      15.52      24.03      37.70
C      12.25      25.20      34.76
C      12.89      26.35      34.23
C      14.31      26.70      34.41
C      18.19      14.62       2.99
C      16.76      14.28       2.80
C      20.28      13.87       3.96
C      20.91      12.79       4.56
C      22.36      15.35       3.54
C      20.92      15.03       3.45
C      22.44      11.95       7.68
C      22.37      11.94       6.25
C      23.12      10.98       5.54
C      18.82      15.78       2.46
C      18.27      16.74       1.60
C      16.34      17.62       0.47
C      16.31      19.04       0.50
C      17.02      19.78       1.48
C      16.30      21.92       0.52
C      17.02      21.18       1.49
C      16.31      23.34       0.52
C      18.74      25.18       2.56
C      18.04      26.07       3.41
C      16.57      26.20       3.47
C      20.13      26.91       4.35
C      18.21      24.31       1.60
C      20.62      27.85       5.27
C      22.30      25.79       3.43
C      20.83      26.01       3.51
C      22.48      29.07       6.19
C      22.46      29.05       7.62
C      23.27      30.04       5.54
C      20.02      13.85      13.84
C      20.58      12.98      12.90
C      16.48      14.93      14.24
C      17.92      14.85      14.57
C      20.65      14.41      14.99
C      23.20      10.96       8.37
C      21.74      12.92       8.44
C      23.23      10.95       9.80
C      21.77      12.90       9.84
C      22.49      11.92      10.55
C      22.50      11.88      11.98
C      22.08      14.23      15.33
C      20.01      27.14      13.99
C      20.69      26.13      14.71
C      20.59      28.19      13.27
C      16.44      26.50      14.73
C      17.90      26.27      14.83
C      18.58      25.27      15.59
C      21.74      28.06       8.33
C      21.71      28.05       9.73
C      23.18      30.03       8.37
C      23.16      30.01       9.80
C      23.09      29.98      12.63
C      22.34      29.02      11.91
C      22.40      29.02      10.49
C      22.16      25.98      14.75
C      18.56      15.38      15.72
C      15.68      16.94      18.59
C      16.43      17.66      17.62
C      16.34      19.08      17.62
C      17.92      15.98      16.79
C      16.24      21.96      17.64
C      16.97      21.26      16.66
C      17.02      19.85      16.65
C      16.21      23.38      17.67
C      18.07      24.33      16.48
C      24.09       6.72       3.43
C      25.56       6.94       3.51
C      30.09       2.85       0.52
C      30.07       4.28       0.52
C      29.37       2.11       1.49
C      29.37       0.71       1.48
C      27.64       6.12       2.56
C      28.35       7.00       3.42
C      29.82       7.13       3.47
C      28.17       5.24       1.60
C      26.26       7.85       4.35
C      25.77       8.78       5.27
C      23.91      10.01       6.19
C      23.93       9.98       7.62
C      25.48      31.85       4.56
C      24.03      34.41       3.54
C      25.47      34.09       3.44
C      23.95      31.01       7.68
C      24.02      31.01       6.25
C      28.20      33.69       3.00
C      29.63      33.35       2.81
C      26.11      32.94       3.96
C      27.57      34.84       2.45
C      28.12      35.80       1.60
C      30.08      38.11       0.50
C      30.05      36.68       0.47
C      25.71       7.07      14.70
C      24.24       6.92      14.75
C      29.96       7.41      14.70
C      28.50       7.19      14.80
C      27.81       6.21      15.58
C      24.64       8.99       8.34
C      24.68       8.98       9.74
C      23.29      10.91      12.63
C      24.04       9.95      11.92
C      23.99       9.95      10.50
C      26.39       8.06      13.96
C      25.82       9.10      13.22
C      24.65      31.98       8.44
C      24.61      31.97       9.84
C      23.89      30.98      10.55
C      23.88      30.95      11.98
C      25.80      32.05      12.90
C      25.73      33.47      14.99
C      24.30      33.29      15.34
C      26.36      32.92      13.84
C      29.90      34.00      14.24
C      28.46      33.91      14.57
C      30.82       0.70      18.60
C      29.36       0.79      16.65
C      30.87       2.14      18.62
C      30.15       2.89      17.64
C      30.18       4.32      17.67
C      29.42       2.19      16.66
C      28.32       5.26      16.48
C      27.83      34.45      15.72
C      30.05      38.15      17.62
C      29.95      36.73      17.63
C      30.70      36.01      18.59
C      28.47      35.05      16.80
C      30.85       2.14      37.68
C      30.86       4.96      37.70
C      30.85       0.70      37.67
C      30.83      36.01      37.64
N       1.82       4.90      20.53
N       4.57       6.79      21.36
N       3.31      32.93      23.18
N       1.51      35.84      20.42
N       4.61      34.75      21.76
N       3.38       7.80      23.51
N       6.53       9.18      24.43
N       6.40      31.96      24.59
N       1.70       5.09      35.90
N       4.84       6.01      34.50
N       3.64       8.17      33.53
N       6.37       9.02      31.63
N       3.45      33.17      32.97
N       1.64      35.93      35.80
N       4.79      34.82      34.54
N       6.54      31.84      31.83
N      12.43      13.84      23.13
N      14.25      16.77      20.41
N      11.14      15.69      21.75
N      13.95      23.97      20.54
N      11.20      25.85      21.36
N       9.38      12.90      24.61
N       9.24      28.24      24.43
N      12.39      26.86      23.51
N       9.22      12.78      31.83
N      12.31      14.10      32.98
N      10.97      15.76      34.55
N      14.12      16.86      35.81
N       9.39      28.09      31.63
N      12.12      27.24      33.53
N      14.06      24.15      35.90
N      10.92      25.08      34.50
N      18.95      13.74       3.69
N      21.68      12.89       5.59
N      17.02      16.82       1.31
N      20.15      15.90       2.72
N      16.96      24.11       1.41
N      20.10      25.22       2.67
N      18.77      26.87       4.24
N      21.86      28.19       5.39
N      18.69      14.11      13.71
N      21.84      12.73      12.78
N      18.65      27.14      14.10
N      19.94      25.28      15.47
N      21.69      28.08      12.61
N      19.88      15.12      15.86
N      17.13      17.00      16.68
N      16.83      24.20      16.82
N      29.43       5.04       1.41
N      26.29       6.15       2.67
N      27.62       7.80       4.24
N      24.53       9.13       5.39
N      24.71      31.95       5.59
N      27.44      32.80       3.69
N      29.37      35.89       1.31
N      26.23      34.96       2.72
N      26.45       6.22      15.46
N      24.69       9.01      12.62
N      27.75       8.06      14.07
N      24.54      31.79      12.79
N      27.69      33.18      13.72
N      29.56       5.14      16.81
N      26.50      34.18      15.86
N      29.25      36.07      16.69
