105

Cu       9.40      -0.13       9.04
Cu       1.87       0.57       2.52
Cu       6.22       5.66       8.88
H       5.73       0.56       5.85
H       7.67       8.65       6.14
H      10.83       8.29       9.02
H      13.33       3.68       8.73
H      12.69       0.44      11.48
H       4.55       2.62      11.56
H      15.90       9.34       2.72
H      14.16       5.61       1.40
H      14.84       6.30       5.61
H      14.04       8.38       6.72
H      11.85       0.44       7.03
H      17.48       9.74       4.61
H       6.13       4.99      11.87
H      15.40      10.04       0.61
H      18.13       8.82      10.14
H       2.68       3.49       1.96
H      12.61       2.00       5.41
H      13.14       4.68       5.81
H       9.18       4.17      12.05
H       5.58       2.39       3.06
H       6.24       6.57       3.82
H       7.34       8.17       3.24
H       9.81       9.00      11.69
H       9.20       6.34      11.42
H       9.89       2.26      11.10
H       4.36       1.31       1.44
H      12.71       9.57      11.33
H       6.91       5.95       5.80
H       4.62       2.44       5.04
H       4.91       2.81       7.77
C      11.11       9.82       7.52
C       5.17      -0.22       6.35
C       9.37       9.96       5.83
C       8.64       8.96       6.51
C       9.17       8.36       7.66
C      10.41       8.78       8.15
C       6.99      -0.29       8.05
C       3.45      -0.08       4.55
C       8.43       7.25       8.36
C      14.94       3.29      10.12
C      13.69       3.05       9.54
C      12.91       1.98       9.99
C      13.33       1.23      11.09
C      14.56       1.48      11.69
C      15.39       2.48      11.16
C      15.83       4.38       9.56
C      11.64       1.60       9.27
C      12.26       1.58       0.60
C      15.33       7.92       4.26
C      15.50       8.35       2.94
C      15.12       7.48       1.91
C      14.56       6.23       2.20
C      14.46       5.81       3.53
C      14.86       6.64       4.57
C      14.95       8.92       6.49
C      11.21      -0.31       6.60
C      16.73       9.68       5.38
C      18.00       6.06      11.77
C      15.33       9.14       0.00
C      18.10       8.07      10.91
C      14.07       3.44       2.94
C      13.10       2.71       4.76
C      13.36       4.04       4.97
C       6.47       5.95       1.76
C       6.32       4.91       0.85
C       5.97       3.64       1.33
C       5.80       3.39       2.70
C       5.94       4.46       3.58
C       6.24       5.74       3.12
C       7.16       8.28       2.18
C       7.04       9.14       0.18
C       6.74       7.81       0.04
C       9.15       1.56      11.46
C       4.95       1.47       0.54
C       7.79      -0.14      11.65
C       6.30       5.07       5.96
C       5.11       3.21       5.60
C       5.26       3.42       6.95
N      15.52       9.83       7.27
N      15.65       8.80       5.33
N      15.26       7.86       0.55
N       6.22       6.71      10.62
N      13.98       4.50       3.80
N      13.55       2.35       3.49
N       6.80       7.27       1.33
N       7.30       9.42       1.51
N       5.80       2.57       0.41
N       8.72       0.48      10.82
N       5.78       4.27       4.98
N       5.99       4.58       7.16
O      13.11       9.47       8.76
O       7.39       0.86       7.76
O       4.18       0.64       3.83
O       7.65      10.23       4.22
O       7.22       7.03       7.92
O       8.98       6.62       9.29
O       5.26       4.24       9.86
O      15.37       5.28       8.84
O      11.11       2.36       8.44
O      11.20       0.41       9.61
O      11.43       0.94       1.30
O       1.70       1.58       0.84
