360

Gd      -1.72      13.37      19.40
Gd       7.95       4.00       7.07
Gd       1.75      13.37      17.57
Gd       4.48       4.00       5.25
H      -4.72      14.92      18.89
H       6.15      16.73      19.75
H       0.70       0.77      21.67
H       2.97       0.31      22.66
H      -1.80      15.84      21.68
H      -2.46       9.63      22.06
H      -4.09      14.03      23.00
H       6.65      13.77       2.32
H       7.26      11.37       2.44
H       9.59       7.55      22.15
H      -1.23       7.79      22.96
H      -1.72       5.35      22.55
H      -1.60       5.68      24.30
H       9.19       5.48      23.53
H       6.17       6.32       2.28
H       8.85       7.59       6.05
H      -1.51      11.17       4.79
H      -2.52      10.97       2.54
H       6.96       5.93       0.12
H       5.26       6.43      24.62
H       6.15       5.81      22.35
H       5.85       7.56      22.41
H       7.51       6.94      22.56
H       0.06      14.46      22.36
H       3.12      16.96      19.59
H      10.67       2.75      22.16
H       9.37       1.82      24.05
H      -1.57      14.52      23.93
H      -0.19      13.51      24.40
H      -2.11      13.22       1.36
H      -0.71      13.95       2.20
H      -2.10      14.96       1.71
H      10.95       2.45       6.57
H       0.08       0.64       7.43
H       5.53      16.61       9.35
H       3.26      17.06      10.33
H       8.03       1.53       9.36
H       8.69       7.74       9.74
H      10.32       3.34      10.68
H      -0.42       3.60      14.65
H      -1.03       6.00      14.77
H      -3.36       9.82       9.83
H       7.46       9.58      10.63
H       7.95      12.02      10.23
H       7.83      11.69      11.97
H      -2.96      11.89      11.20
H       0.06      11.05      14.60
H      -2.62       9.78      18.38
H       7.74       6.20      17.11
H       8.75       6.41      14.86
H      -0.73      11.45      12.45
H       0.97      10.94      12.29
H       0.08      11.56      10.03
H       0.38       9.81      10.08
H      -1.28      10.43      10.23
H       6.17       2.91      10.04
H       3.11       0.41       7.27
H      -4.44      14.62       9.84
H      -3.14      15.55      11.73
H       7.80       2.85      11.61
H       6.42       3.86      12.08
H       8.34       4.15      13.68
H       6.94       3.42      14.52
H       8.33       2.41      14.04
H       4.75      14.91      18.08
H       6.28      16.70      17.22
H      11.67       0.74      15.29
H       9.39       0.30      14.31
H       1.84      15.84      15.28
H       2.49       9.65      14.91
H       4.16      14.04      13.98
H       5.79      13.78      10.01
H       5.19      11.38       9.89
H       2.83       7.57      14.83
H       1.27       7.82      14.00
H       1.73       5.37      14.41
H       1.62       5.71      12.67
H       3.22       5.49      13.44
H       6.24       6.31      10.07
H       3.56       7.60       6.28
H       1.56      11.18       7.56
H       2.58      10.97       9.81
H       5.48       5.93      12.20
H       7.18       6.44      12.38
H       6.25       5.80      14.62
H       6.56       7.55      14.60
H       4.90       6.93      14.41
H      -0.00      14.44      14.61
H      -3.06      16.95      17.37
H       1.73       2.76      14.80
H       3.02       1.81      12.91
H       1.64      14.52      13.04
H       0.27      13.50      12.59
H       2.18      13.19      10.99
H       0.77      13.90      10.14
H       2.15      14.92      10.60
H       1.48       2.47       5.76
H      -0.05       0.67       4.90
H      -5.44      16.63       2.97
H      -3.16      17.07       1.99
H       4.39       1.53       2.96
H       3.74       7.72       2.58
H       2.07       3.33       1.65
H       0.44       3.60      22.33
H       1.04       5.99      22.22
H       3.40       9.80       2.51
H       4.96       9.55       1.68
H       4.50      12.00       2.09
H       4.61      11.66       0.35
H       3.01      11.88       1.12
H      -0.01      11.06      22.39
H       2.67       9.77      18.61
H       4.67       6.19      19.89
H       3.65       6.40      22.13
H       0.75      11.44      24.52
H      -0.95      10.93       0.05
H      -0.02      11.57       2.30
H      -0.33       9.82       2.27
H       1.33      10.44       2.08
H       6.23       2.94       2.28
H       9.29       0.42       5.05
H       4.50      14.62       2.48
H       3.21      15.57       0.59
H       4.59       2.85       0.72
H       5.96       3.87       0.27
H       4.05       4.18      23.31
H       5.46       3.47      22.47
H       4.08       2.45      22.92
C      -4.42      15.55      19.73
C      -5.26      16.56      20.21
C      -4.82      17.35      21.27
C      -3.56      17.10      21.82
C      -2.79      16.07      21.28
C       8.52       9.92       0.53
C      -3.23       9.33      24.08
C      -2.95      10.09      22.91
C      -3.26      11.44      22.86
C      -3.91      12.08      23.95
C      -4.30      13.44      23.89
C      -4.95      14.02       0.32
C       7.15      13.28       1.49
C       7.50      11.95       1.55
C       8.17      11.30       0.47
C      -2.83      12.23      21.66
C      -2.24       7.37      23.08
C      10.20       5.88      23.39
C       8.15       9.05       1.68
C       7.22       8.03       1.45
C       6.91       7.10       2.46
C       7.54       7.14       3.69
C       8.45       8.19       4.00
C       9.05       8.33       5.28
C      -2.50       9.39       5.55
C      -2.20      10.35       4.55
C      -2.76      10.23       3.30
C       8.73       9.17       2.98
C       7.21       6.04       4.64
C       6.29       6.68      24.33
C       6.46       6.75      22.82
C       1.59      17.05      23.99
C       0.76      15.94      23.79
C       0.71      15.31      22.53
C       1.49      15.77      21.47
C       2.35      16.90      21.63
C       9.28       0.08      20.56
C      10.03       1.22      20.77
C      10.07       1.86      22.03
C       9.35       1.33      23.08
C       8.54       0.17      22.91
C       1.32      15.04      20.18
C      -0.82      14.36       0.07
C      -1.47      14.11       1.42
C      10.65       1.82       7.41
C      11.49       0.81       7.88
C      11.05       0.02       8.95
C       9.79       0.27       9.49
C       9.02       1.30       8.96
C      -2.29       7.45      12.86
C       9.46       8.04      11.75
C       9.18       7.28      10.59
C       9.49       5.93      10.53
C      10.14       5.29      11.63
C      10.53       3.93      11.57
C      11.18       3.35      12.64
C      -0.92       4.09      13.81
C      -1.27       5.42      13.88
C      -1.94       6.07      12.80
C       9.06       5.15       9.34
C       8.47      10.00      10.75
C      -3.97      11.49      11.07
C      -1.92       8.32      14.00
C      -0.99       9.34      13.77
C      -0.68      10.27      14.78
C      -1.31      10.23      16.01
C      -2.22       9.18      16.32
C      -2.82       9.04      17.61
C       8.73       7.98      17.87
C       8.43       7.02      16.88
C       8.99       7.14      15.63
C      -2.50       8.20      15.30
C      -0.98      11.34      16.96
C      -0.06      10.70      12.00
C      -0.23      10.62      10.50
C       4.64       0.33      11.66
C       5.47       1.43      11.47
C       5.52       2.06      10.20
C       4.74       1.60       9.14
C       3.88       0.47       9.30
C      -3.05      17.30       8.24
C      -3.80      16.15       8.45
C      -3.84      15.52       9.71
C      -3.12      16.04      10.76
C      -2.31      17.20      10.59
C       4.91       2.33       7.86
C       7.05       3.01      12.39
C       7.70       3.26      13.74
C       4.46      15.53      17.24
C       5.30      16.54      16.76
C       4.87      17.33      15.70
C       3.61      17.09      15.15
C       2.83      16.06      15.68
C       3.92       9.93      11.80
C       3.28       9.35      12.90
C       2.99      10.11      14.06
C       3.31      11.45      14.12
C       3.97      12.09      13.03
C       4.37      13.45      13.09
C       5.02      14.03      12.02
C       5.30      13.29      10.85
C       4.95      11.96      10.78
C       4.28      11.31      11.86
C       2.87      12.23      15.31
C       2.27       7.39      13.90
C       2.21       5.90      13.58
C       4.29       9.06      10.65
C       5.21       8.03      10.89
C       5.51       7.10       9.88
C       4.89       7.14       8.65
C       3.97       8.20       8.34
C       3.37       8.34       7.05
C       2.54       9.41       6.80
C       2.24      10.36       7.79
C       2.81      10.24       9.04
C       3.70       9.18       9.36
C       5.22       6.04       7.69
C       6.14       6.68      12.65
C       5.95       6.75      14.16
C      -1.52      17.03      12.98
C      -0.70      15.92      13.18
C      -0.66      15.29      14.44
C      -1.44      15.74      15.50
C      -2.29      16.88      15.34
C       3.10       0.06      16.40
C       2.37       1.21      16.19
C       2.32       1.85      14.93
C       3.04       1.32      13.89
C       3.85       0.16      14.06
C      -1.32      15.00      16.79
C       0.89      14.35      12.26
C       1.53      14.07      10.92
C       1.77       1.84       4.91
C       0.93       0.83       4.44
C       1.36       0.04       3.37
C       2.62       0.28       2.82
C       3.40       1.31       3.36
C       2.31       7.44      24.13
C       2.95       8.03       0.58
C       3.24       7.26       1.73
C       2.92       5.92       1.79
C       2.26       5.28       0.71
C       1.86       3.92       0.76
C       1.21       3.34      24.34
C       0.93       4.08      23.17
C       1.28       5.41      23.11
C       1.95       6.06      24.19
C       3.36       5.14       2.99
C       3.96       9.98       1.57
C       4.02      11.47       1.26
C       1.94       8.31      22.98
C       1.02       9.34      23.21
C       0.72      10.28      22.21
C       1.34      10.23      20.97
C       2.26       9.17      20.66
C       2.86       9.03      19.38
C       3.69       7.97      19.12
C       3.99       7.01      20.12
C       3.42       7.13      21.37
C       2.53       8.19      21.68
C       1.01      11.33      20.02
C       0.09      10.69       0.33
C       0.28      10.62       1.83
C       7.75       0.34       0.66
C       6.92       1.45       0.86
C       6.89       2.08       2.12
C       7.67       1.63       3.18
C       8.52       0.49       3.02
C       3.13      17.31       4.08
C       3.86      16.16       3.87
C       3.91      15.52       2.61
C       3.19      16.05       1.56
C       2.38      17.21       1.73
C       7.55       2.37       4.46
C       5.34       3.02      24.59
C       4.70       3.30      23.24
N      -3.21      15.30      20.26
N       9.43       2.07       7.93
N       3.25      15.29      16.71
N       2.98       2.08       4.38
Cl      -5.46      15.69       0.22
Cl      -1.77       9.56       7.13
Cl      10.94       1.91      19.45
Cl      11.69       1.68      12.55
Cl       8.00       7.81      19.45
Cl      -4.71      15.46       7.13
Cl       5.52      15.70      12.10
Cl       1.81       9.59       5.22
Cl       1.46       1.92      17.51
Cl       0.71       1.67      24.42
Cl       4.42       7.78      17.54
Cl       4.77      15.45       5.19
O      -1.96      13.15      21.84
O      -3.29      11.95      20.50
O       9.49       8.02      24.19
O       5.99       5.67       4.69
O       8.16       5.49       5.29
O       6.64       7.98       0.21
O       0.16      14.53      19.95
O       2.28      14.90      19.36
O       0.01      15.54       0.21
O       8.19       4.23       9.52
O       9.52       5.42       8.18
O      -3.26       9.35      11.87
O       0.24      11.70      17.01
O      -1.93      11.88      17.62
O      -0.41       9.39      12.54
O       6.07       2.84       7.63
O       3.95       2.47       7.04
O       6.21       1.83      12.54
O       2.00      13.15      15.14
O       3.31      11.94      16.48
O       2.95       8.03      12.79
O       6.44       5.68       7.63
O       4.27       5.49       7.03
O       5.80       7.99      12.12
O      -0.16      14.52      17.08
O      -2.31      14.84      17.55
O       0.06      15.53      12.12
O       4.23       4.22       2.81
O       2.92       5.43       4.16
O       3.28       9.34       0.46
O      -0.21      11.69      19.95
O       1.96      11.88      19.36
O       0.43       9.38      24.44
O       6.39       2.85       4.76
O       8.54       2.53       5.23
O       6.17       1.84      24.44
