18

O       9.53       6.90      12.69
O      11.31       2.57       8.49
O      11.25       6.88      11.20
O      11.36       0.69       9.71
O       9.29       2.59      15.36
O       9.12       0.74      14.11
C       9.38       1.98      14.25
H      11.15       4.66       9.94
H       9.54       4.68      13.94
H      10.25       0.95      11.92
C      10.79       4.12      10.81
C      11.17       1.94       9.60
C       9.88       4.13      13.06
C      10.35       4.82      11.94
C       9.85       2.73      13.05
C      10.75       2.72      10.80
C      10.38       6.31      11.94
C      10.28       2.03      11.92
