200

Cd      10.76       6.38       3.50
Cd       1.89      12.08      10.40
Cd      -4.49       6.97      14.41
Cd       4.38       1.27       7.51
H       0.93       6.00       3.09
H      11.19       5.60       0.18
H      -5.73       3.95      17.04
H      -3.41       4.37      16.88
H       5.88       3.07       1.02
H       2.35       4.20       3.19
H       3.04       2.13       4.35
H       6.80       3.77       3.21
H       6.98       2.61       5.74
H      -2.63       3.46      15.10
H       1.50       2.86      14.49
H       1.03       2.98      17.21
H      -1.90       6.01       6.71
H      -0.04       3.55       3.85
H       1.19       3.12       6.31
H      -0.48       8.21      10.65
H      -2.38       9.21      12.43
H      -2.54       5.01      12.55
H      -0.89       6.51       8.75
H       0.42       2.43       8.25
H      -0.29       3.98      12.21
H       1.96       1.18       9.28
H      -0.56       1.75      12.66
H      -0.43      13.21      12.74
H       5.34       7.34      14.83
H      -4.91       7.74      17.73
H      12.01       9.40       0.88
H       9.69       8.98       1.03
H       0.39      10.27      16.90
H       3.93       9.14      14.72
H       3.23      11.21      13.57
H      -0.53       9.57      14.71
H      -0.70      10.73      12.17
H       8.91       9.89       2.82
H       4.78      10.48       3.42
H       5.24      10.37       0.71
H       8.18       7.34      11.20
H       6.31       9.80      14.07
H       5.09      10.22      11.60
H       6.75       5.13       7.26
H       8.65       4.14       5.49
H       8.81       8.34       5.36
H       7.16       6.83       9.16
H       5.85      10.91       9.67
H       6.56       9.36       5.70
H       4.32      12.16       8.64
H       6.83      11.59       5.26
H       6.70       0.13       5.18
C       0.41       5.75       2.17
C      12.17       5.53       0.62
C       0.05       5.03       0.09
C       2.33       4.62       1.07
C      -2.99       3.92      17.78
C      -1.71       3.35      17.76
C       4.89       3.52       1.02
C       4.17       3.60       2.21
C       2.89       4.14       2.25
C       4.08       2.43       4.41
C       6.07       3.25       3.82
C       6.14       2.67       5.06
C      -1.57       3.31      15.27
C       0.56       2.98      15.02
C       0.35       3.02      16.37
C      -1.24       5.29       6.25
C      -0.24       4.00       4.81
C       0.36       3.76       6.02
C      -1.20       7.71      11.29
C      -2.13       8.18      12.18
C      -2.24       6.02      12.32
C      -0.66       5.33      10.55
C      -0.59       5.56       9.17
C      -0.18       4.50       8.35
C       0.19       3.27       8.90
C       0.18       3.10      10.28
C      -0.25       4.13      11.13
C       1.41       0.95      10.18
C       0.10       1.23      11.96
C       0.67      -0.01      11.99
C       2.23       9.38       9.66
C       2.71       7.98       9.30
C       2.93       7.02      10.29
C       3.35       5.72       9.96
C       8.35       5.88       1.61
C       7.22       6.46       0.77
C       6.02       6.86       1.38
C       4.97       7.39       0.62
C      -1.82       9.20       4.13
C      -1.13      10.37       4.82
C       0.17      10.73       4.43
C       0.89      11.69       5.13
C       0.33      12.33       6.25
C      -1.00      12.04       6.59
C      -1.72      11.07       5.88
C       1.19      13.23       7.11
C       5.86       7.60      15.74
C      -5.90       7.82      17.29
C       6.22       8.32      17.82
C       3.94       8.73      16.85
C       9.27       9.43       0.14
C       7.99      10.00       0.16
C       1.38       9.83      16.89
C       2.10       9.74      15.70
C       3.39       9.20      15.66
C       2.20      10.92      13.50
C       0.20      10.10      14.10
C       0.13      10.67      12.85
C       7.84      10.03       2.65
C       5.72      10.37       2.90
C       5.92      10.32       1.54
C       7.51       8.05      11.66
C       6.52       9.34      13.10
C       5.91       9.58      11.90
C       7.48       5.64       6.63
C       8.40       5.16       5.73
C       8.51       7.33       5.60
C       6.94       8.01       7.36
C       6.86       7.79       8.74
C       6.46       8.85       9.56
C       6.09      10.08       9.02
C       6.09      10.24       7.63
C       6.52       9.22       6.78
C       4.87      12.39       7.74
C       6.18      12.11       5.95
C       5.61      13.36       5.92
C       4.04       3.97       8.25
C       3.57       5.36       8.62
C       3.34       6.33       7.63
C       2.92       7.62       7.95
C      -2.08       7.46      16.31
C      -0.94       6.89      17.15
C       0.25       6.48      16.53
C       1.31       5.96      17.29
C       8.09       4.15      13.79
C       7.40       2.98      13.10
C       6.11       2.62      13.49
C       5.38       1.65      12.78
C       5.95       1.02      11.66
C       7.27       1.31      11.32
C       7.99       2.28      12.03
C       5.08       0.11      10.81
Br       2.64       7.51      12.12
Br       3.64       4.39      11.31
Br       5.87       6.71       3.28
Br       3.34       7.92       1.50
Br       9.75      10.68       6.36
Br      -1.78      12.98       8.07
Br       0.96       9.84       2.92
Br       2.69      12.13       4.64
Br       3.64       5.84       5.79
Br       2.64       8.95       6.60
Br       0.41       6.64      14.63
Br       2.93       5.42      16.42
Br      -3.47       2.67      11.55
Br       8.06       0.36       9.85
Br       5.32       3.51      14.99
Br       3.58       1.21      13.28
N      -0.87       5.97       1.92
N       1.01       5.16       1.09
N      -1.01       3.25      16.54
N      -0.64       3.15      14.34
N       4.75       3.10       3.41
N       4.90       2.16       5.41
N      -1.23       4.96       4.97
N      -0.28       4.59       6.94
N      -1.28       6.32      11.39
N      -2.77       7.13      12.81
N       0.57       1.84      10.80
N       1.47      -0.18      10.87
N       7.15       7.37      16.00
N       5.26       8.19      16.82
N       7.29      10.10       1.38
N       6.92      10.19       3.58
N       1.53      10.25      14.50
N       1.37      11.18      12.50
N       7.51       8.38      12.95
N       6.55       8.75      10.98
N       7.55       7.03       6.53
N       9.05       6.22       5.11
N       5.70      11.51       7.11
N       4.80      13.52       7.04
O       9.27       6.74       1.86
O       8.28       4.69       1.96
O      -1.73       8.10       4.78
O      10.93       9.37       3.01
O       3.16      10.24       9.84
O       1.00       9.58       9.77
O       2.33       0.43       6.71
O       1.73      12.70       8.11
O      -3.00       6.60      16.06
O      -2.01       8.66      15.95
O       8.00       5.25      13.13
O      -4.65       3.98      14.90
O       3.12       3.10       8.07
O       5.28       3.76       8.15
O       3.94      12.91      11.20
O       4.54       0.65       9.80
