29

O      -1.02       3.32       3.40
O       0.61       3.57       1.84
H      -0.28       8.59       3.93
H      -0.17       4.10       5.55
H      -2.35       5.46       4.06
H      -2.04       5.47       6.32
H       1.27       7.83       3.45
H       1.79       7.42       5.63
H       0.36       8.37       6.10
H      -2.42       7.24       4.10
H      -1.87       7.26       6.34
H       1.47       5.40       3.40
H       1.52       4.62       5.56
H       0.16       2.79       1.38
C       0.44       5.18       3.77
C      -0.44       6.44       3.52
C       0.02       6.19       6.07
C      -1.50       6.33       5.86
C       0.51       4.94       5.27
C       0.38       5.94       7.47
C      -0.77       6.57       2.10
C       0.35       7.68       4.04
C       0.70       7.48       5.52
C      -1.78       6.36       4.34
C      -0.03       3.94       3.02
O      -0.54       7.67       1.54
O      -1.46       5.65       1.58
O       1.33       6.62       7.96
O       0.05       4.80       7.91
