310

Ni      11.00       8.76      23.52
Ni       6.61      -0.31      11.76
Ni       4.39       0.00       0.00
Ni      13.20       9.06      11.75
H       5.90      11.49       1.14
H       4.21       8.82       0.68
H       7.35       9.73       3.05
H       6.46      11.20       3.54
H       4.38       7.73       2.85
H       6.16       7.75       2.61
H       8.76      10.92       1.63
H       8.02      12.53       1.75
H       4.12       6.45       0.47
H       5.88       6.40       0.68
H       3.81      10.77       1.95
H       4.08      11.20       3.65
H       3.20       9.70       3.25
H       9.40       1.02      21.76
H       6.58       0.97       0.88
H       4.83       0.19       3.11
H       6.61       0.32       3.16
H       4.26       2.28       2.12
H       5.95       2.83       2.34
H       7.29       1.43      20.64
H       6.46       0.88      22.11
H       8.35       3.17      22.43
H       3.10       2.88       0.17
H      11.25       1.99      22.81
H       7.13       3.87       0.53
H      10.66       3.64      22.59
H      11.85      15.71      18.11
H      10.62      14.99      17.01
H      13.60      14.32      19.08
H      12.42      13.17      19.77
H      15.92      12.83      22.77
H       3.63      -0.32      19.10
H       9.68      16.89      17.97
H      14.23      13.52      21.08
H       6.88      10.47      18.39
H       8.52       9.75      20.16
H      16.34      15.58      22.26
H       9.13      14.01      21.13
H      10.31      16.30      10.64
H       4.23       0.23      11.09
H      11.75      18.05       8.70
H      10.86      16.57       8.23
H       4.38       1.31       8.91
H       6.15       1.30       9.14
H      13.18      16.86      10.13
H      12.41      15.25      10.02
H       4.11       2.61      11.29
H       5.88       2.66      11.08
H       8.22      17.02       9.82
H       8.48      16.58       8.12
H       7.60      18.08       8.52
H       5.00       7.41      13.54
H       6.57       8.08      10.89
H       4.83       8.86       8.65
H       6.61       8.73       8.59
H       4.25       6.76       9.64
H       5.95       6.22       9.43
H      11.71       6.99      14.67
H      10.87       7.55      13.20
H       3.95       5.25      12.88
H      11.91       6.17      11.60
H       6.85       6.43      12.48
H       7.13       5.18      11.23
H       6.25       4.78      12.71
H      11.88      11.46      17.21
H      10.64      12.17      18.29
H      13.62      12.89      16.23
H      12.41      14.00      15.54
H       7.12      14.33      12.56
H       8.04       8.76      16.20
H       9.69      10.27      17.33
H      14.22      13.67      14.23
H      15.69      16.73      16.90
H       8.54      17.42      15.15
H       7.54      11.60      13.05
H       9.15      13.15      14.17
H      11.73       6.64      22.41
H      13.38       9.27      22.86
H      10.28       8.38      20.46
H      11.17       6.90      19.99
H      13.25      10.37      20.67
H      11.48      10.36      20.90
H       8.86       7.18      21.89
H       9.63       5.58      21.78
H      13.52      11.66      23.06
H      11.76      11.73      22.85
H      13.82       7.34      21.59
H      13.55       6.91      19.89
H      14.44       8.40      20.28
H       8.23      17.08       1.78
H      11.04      17.12      22.65
H      12.80      17.91      20.43
H      11.02      17.79      20.37
H      13.37      15.82      21.41
H      11.68      15.27      21.20
H      10.34      16.67       2.90
H      11.17      17.22       1.43
H       9.28      14.93       1.10
H      14.53      15.22      23.36
H       6.38      16.11       0.72
H      10.50      14.23      23.00
H       6.97      14.46       0.95
H       5.78       2.39       5.42
H       7.01       3.11       6.52
H       4.03       3.78       4.45
H       5.21       4.93       3.76
H       1.71       5.28       0.77
H      14.00      18.42       4.44
H       7.95       1.21       5.56
H       3.40       4.58       2.45
H      10.75       7.63       5.14
H       9.11       8.35       3.38
H       1.29       2.53       1.28
H       8.50       4.09       2.41
H       7.32       1.80      12.90
H      13.41      17.87      12.45
H       5.88       0.05      14.83
H       6.77       1.53      15.31
H      13.25      16.79      14.63
H      11.48      16.80      14.39
H       4.46       1.24      13.41
H       5.21       2.85      13.51
H      13.52      15.50      12.24
H      11.75      15.44      12.45
H       9.41       1.08      13.71
H       9.15       1.52      15.41
H      10.03       0.02      15.02
H      12.63      10.72       9.97
H      11.03      10.04      12.66
H      12.81       9.25      14.87
H      11.03       9.37      14.94
H      13.37      11.33      13.88
H      11.68      11.88      14.11
H       5.93      11.11       8.86
H       6.75      10.55      10.34
H      13.68      12.86      10.66
H       5.71      11.92      11.93
H      10.78      11.67      11.05
H      10.50      12.92      12.30
H      11.38      13.33      10.82
H       5.75       6.64       6.33
H       7.00       5.93       5.24
H       4.01       5.21       7.30
H       5.22       4.10       8.00
H      10.52       3.77      10.98
H       9.59       9.34       7.33
H       7.93       7.83       6.20
H       3.41       4.43       9.30
H       1.95       1.37       6.63
H       9.10       0.68       8.38
H      10.09       6.50      10.48
H       8.48       4.95       9.36
C       6.48      10.36       2.83
C       5.22       8.28       2.41
C       7.96      11.56       1.23
C       5.05       6.99       0.27
C       4.03      10.35       2.95
C       5.76       0.07       2.52
C       5.24       2.36       1.64
C       7.37       0.75      21.50
C       8.43       2.31      23.11
C      10.82       2.86      23.34
C      11.25      14.81      17.90
C      16.50      17.09      20.74
C      13.04      13.39      18.89
C      14.86      12.03      19.63
C      15.85      12.31      21.81
C       7.91      11.25      21.57
C       8.30      17.45      19.53
C       9.52      15.37      19.51
C       9.22      16.60      18.91
C      14.91      12.71      20.85
C      15.48      17.98      21.40
C       6.93      10.97      19.36
C       7.84      10.58      20.33
C       8.01      15.85      21.32
C       8.91      10.84      22.62
C       8.90      14.99      20.70
C      10.89      17.42       8.94
C       5.22       0.76       9.35
C      12.37      16.23      10.54
C       5.05       2.06      11.49
C       8.43      17.43       8.82
C       5.75       8.98       9.24
C       5.24       6.69      10.12
C      11.78       7.67      13.81
C       4.03       6.11      12.19
C       6.41       5.56      11.96
C      11.27      12.35      17.41
C       7.70      10.07      14.55
C      13.03      13.80      16.42
C      14.85      15.17      15.68
C       7.05      14.86      13.51
C       7.93      15.92      13.74
C       8.30       9.72      15.76
C       9.54      11.79      15.79
C       9.23      10.56      16.39
C      14.91      14.48      14.46
C       6.69       9.17      13.89
C       6.93      16.22      15.94
C       7.85      16.59      14.97
C       8.02      11.32      13.98
C       8.92      16.31      12.68
C       8.92      12.17      14.60
C      11.15       7.74      20.70
C      12.41       9.82      21.11
C       9.66       6.55      22.30
C      12.58      11.12      23.26
C      13.60       7.75      20.59
C      11.87      18.03      21.01
C      12.39      15.74      21.89
C      10.26      17.35       2.03
C       9.20      15.79       0.42
C       6.82      15.24       0.20
C       6.38       3.29       5.64
C       1.14       1.01       2.79
C       4.59       4.71       4.64
C       2.77       6.07       3.90
C       1.78       5.80       1.72
C       9.72       6.86       1.96
C       9.34       0.65       4.00
C       8.11       2.73       4.03
C       8.41       1.50       4.63
C       2.72       5.40       2.68
C       2.15       0.12       2.14
C      10.70       7.13       4.17
C       9.79       7.52       3.20
C       9.63       2.26       2.22
C       8.72       7.27       0.91
C       8.73       3.11       2.83
C       6.74       0.69      14.60
C      12.41      17.34      14.18
C       5.26       1.87      13.00
C      12.58      16.04      12.04
C       9.20       0.67      14.71
C      11.88       9.12      14.29
C      12.39      11.41      13.41
C       5.85      10.43       9.72
C      13.60      12.00      11.34
C      11.22      12.54      11.57
C       6.36       5.75       6.12
C       9.93       8.03       8.98
C       4.60       4.30       7.12
C       2.78       2.94       7.85
C      10.58       3.24      10.02
C       9.70       2.18       9.79
C       9.32       8.38       7.77
C       8.09       6.31       7.74
C       8.40       7.54       7.14
C       2.72       3.62       9.07
C      10.94       8.93       9.64
C      10.70       1.88       7.59
C       9.78       1.51       8.56
C       9.61       6.78       9.55
C       8.71       1.79      10.85
C       8.71       5.93       8.94
C      12.16      13.59      17.66
C       5.47       4.51       5.88
N       6.68      10.87       1.44
N       5.08       8.32       0.92
N       5.28       9.59       3.02
N       8.54       1.05      22.35
N       5.67       0.96       1.34
N       5.13       3.20       0.47
N      11.09      16.92      10.32
N       5.08       0.73      10.84
N       9.68      18.19       8.74
N      12.95       7.38      12.95
N       5.66       8.09      10.42
N       5.13       5.85      11.29
N      10.94       7.25      22.09
N      12.54       9.80      22.60
N      12.36       8.52      20.50
N       9.09      17.05       1.19
N      11.96      17.14      22.19
N      12.50      14.90      23.06
N       6.54       1.18      13.21
N      12.55      17.37      12.69
N       7.95      -0.09      14.79
N       4.68      10.73      10.56
N      11.95      10.01      13.11
N      12.50      12.26      12.24
O      10.44      14.46      19.03
O      14.95      17.51      22.48
O      10.80       0.36      20.86
O       9.52       9.73      22.40
O       4.67      12.24       0.08
O      13.95      12.31      18.63
O      10.46      12.69      16.27
O       6.16       9.64      12.81
O       6.43       8.06      14.44
O       9.52      17.44      12.89
O       9.09      15.54      11.70
O      13.92      14.90      16.66
O       7.19       3.64       4.50
O       2.68       0.59       1.06
O       6.83      17.74       2.68
O       8.11       8.39       1.12
O      12.96       5.87      23.45
O       3.68       5.79       4.90
O       7.17       5.41       7.26
O      11.47       8.46      10.72
O      11.20      10.04       9.09
O       8.11       0.66      10.65
O       8.54       2.56      11.84
O       3.71       3.20       6.87
