18

C       9.02      15.42      11.75
C       9.86      14.30      11.76
O      12.93      14.06       8.89
C       9.33      16.48      10.88
C      10.95      14.23      10.88
O       7.43      17.64      11.58
O       8.43      13.13      13.24
N       8.46      17.68      10.88
O      10.50      12.30      12.88
H      10.63      17.27       9.36
O       8.81      18.64      10.18
H       8.16      15.48      12.40
C      12.40      15.20       9.08
C      10.42      16.44      10.02
H      11.59      13.35      10.89
C      11.23      15.29      10.01
C       9.58      13.16      12.69
O      12.80      16.28       8.52
