86

Pr       5.77       7.64       8.08
Pr       5.47       7.77       4.27
H       6.47       4.11       9.04
H       8.20      10.68       5.89
H       8.18       5.72       7.33
H       7.93      13.24       8.57
H      10.36      11.71       5.31
H       8.99       4.67       9.39
H       7.82      11.48      10.34
H       9.86       2.77       5.01
H       0.82       5.07      10.17
H       6.82       8.02       0.16
H       7.90       4.22       5.32
H       2.31       6.54       8.91
H       4.79      11.31       3.32
H       3.06       4.71       6.48
H       3.05       9.67       5.04
H       3.34       2.18       3.79
H       0.91       3.68       7.10
H       2.24      10.72       2.98
H       3.46       3.95       2.03
H       1.41      12.62       7.40
H      10.41      10.32       2.21
H       4.45       7.41      12.21
H       3.37      11.18       7.06
H       8.93       8.84       3.46
C       5.53       6.06      10.36
C       5.73      10.52       6.41
C       8.13       7.34       5.35
C       5.43       5.00      11.40
C       5.85      12.01       6.31
C       9.55       7.48       5.76
C       5.89       3.70      11.10
C       7.10      12.57       5.97
C      10.01       6.84       6.93
C       6.43       3.36       9.82
C       8.27      11.76       5.77
C       9.18       5.95       7.69
C       7.54      13.49       9.56
C       9.48      12.34       5.45
C       9.65       5.34       8.83
C       7.46      12.49      10.56
C       8.91       2.33       5.29
C       0.45       5.57       9.27
C       6.94      12.77      11.80
C       7.81       3.14       5.47
C       1.29       6.39       8.56
C       6.46      14.08      12.11
C       6.54       2.59       5.83
C       0.84       7.06       7.38
C       5.69       9.34       1.99
C       5.52       4.88       5.98
C       3.10       8.06       7.03
C       5.81      10.42       0.96
C       5.40       3.39       6.04
C       1.68       7.91       6.61
C       5.35      11.72       1.26
C       4.15       2.83       6.37
C       1.22       8.54       5.44
C       4.82      12.06       2.54
C       2.99       3.63       6.59
C       2.05       9.44       4.68
C       3.73       1.93       2.81
C       1.79       3.05       6.93
C       1.58      10.05       3.54
C       3.81       2.94       1.81
C       2.36      13.06       7.09
C      10.78       9.82       3.11
C       4.32       2.65       0.57
C       3.45      12.25       6.89
C       9.94       8.99       3.81
C       4.78       1.34       0.25
C       4.71      12.80       6.52
C      10.39       8.32       4.99
O       6.68       6.55      10.02
O       5.94       9.97       7.54
O       7.22       7.85       6.15
O       4.46       6.48       9.78
O       5.40       9.88       5.35
O       7.79       6.84       4.25
O       4.53       8.88       2.32
O       5.26       5.47       4.88
O       4.01       7.55       6.25
O       6.75       8.90       2.56
O       5.87       5.47       7.05
O       3.42       8.57       8.14
