128

C       9.81       6.57       2.71
C       8.33       7.32      18.10
C       8.60       5.95      12.15
C       3.65       6.36       1.46
C      14.52       6.45      17.33
C      13.92       5.46      18.04
C      13.99       5.43       0.72
C       6.22       2.39      17.61
C       7.47       1.29       0.62
C       9.41       6.43       1.32
C      13.24       4.38      17.35
C      13.34       4.31       1.37
C       9.85       0.67       0.98
C       7.27       9.45      17.45
C       8.99       2.75       1.89
C       9.69       9.15      17.17
C       5.24       2.18       0.93
C       9.97       5.55      18.00
C       5.10       2.57      18.43
C      10.14       5.52       0.55
C       6.13       2.79      16.21
C       8.73       2.31      18.21
C       8.76       8.85       0.64
C       8.88       1.76       0.81
C       8.49       8.80      17.96
C       6.38       1.57       1.46
C       9.05       6.38      17.36
C      14.48       6.51      10.90
C      14.37       6.58       8.12
C      14.85       7.67      10.21
C      14.80       7.69       8.85
C      13.77       5.52       8.81
C      13.80       5.50      10.21
C      14.21       6.76       2.81
C       4.11       6.22      16.00
C       5.13       8.47      10.20
C       7.35       1.76      18.13
C       5.06       8.47       8.69
C       6.27       1.47      10.92
C       9.09       6.35       7.94
C       5.09       1.24      10.21
C       9.16       5.11       8.58
C       8.59       7.36       0.67
C       5.11       1.10       8.84
C       9.07       5.03       9.95
C       7.51       1.16       8.86
C       8.61       7.38      10.10
C       7.49       1.28      10.26
C       8.71       7.47       8.70
C       3.81       2.02      10.14
C      10.20       4.03       8.53
C       3.85       1.86       8.64
C      10.13       3.98      10.04
C       6.30       1.18       8.13
C       8.88       6.16      10.74
C       6.30       0.97       2.77
C       8.60       6.00      16.04
C       9.70       6.55       6.64
C       6.20       2.17      12.20
C      14.14       6.79       6.72
C       4.12       6.21      12.16
C       6.26       0.90       6.71
Cr      10.17       8.93       4.69
Cr       6.33       6.79      14.08
Cr      13.60       8.96       4.75
Cr       8.02       3.79      14.13
Cr      11.91       5.96       4.73
Cr       4.59       3.82      14.10
H      15.99       9.48      10.64
H      11.18       4.37       8.16
H       3.96       3.07      10.45
H       3.02       1.23       8.25
H       9.76       3.02      10.44
H       4.01       2.81       8.09
H      11.05       4.36      10.53
H       5.87       7.89       8.21
H       6.01       7.92      10.57
H      15.90       9.48       8.26
H       8.42       1.33      10.81
H       8.59       8.44       8.24
H       2.96       1.49      10.62
H       9.81       3.10       8.05
H      14.81       7.38      17.80
H       4.38       7.01       1.00
H       4.36       2.34       1.54
H      10.53       4.81      17.45
H       4.20       2.99      18.03
H      10.80       4.80       1.00
H       8.70       3.40      18.14
H       9.77       9.15       0.96
H       9.42       1.81      17.49
H       8.46       1.08       8.35
H       7.93       9.37       1.18
H      13.35       4.68       8.28
H      13.41       4.64      10.74
H       8.37       8.27      10.68
N      12.70       3.52      16.79
N      10.63       9.36      16.54
N       9.04       3.49       2.77
N      12.83       3.41       1.89
N      16.12       9.40       1.13
N       0.83       0.39      17.04
O       5.14       0.72       3.19
O       4.95       7.07      12.55
O      14.53       7.91       6.27
O       7.32       0.51       6.13
O       7.69       6.66      12.70
O      11.89       7.95       4.72
O       6.31       4.80      14.10
O       8.96       4.86      15.63
O       9.61       7.69       3.29
O       7.23       2.68      15.53
O      10.55       5.66       3.20
O       5.02       2.47      15.62
O      13.28       6.08       3.35
O       4.01       5.06      15.47
O      14.57       7.91       3.26
O       4.93       7.10      15.56
O       7.35       0.51       3.34
O       7.67       6.68      15.49
O       5.11       0.72       6.20
O       8.98       4.84      12.62
O       9.58       7.69       6.08
O       7.25       2.66      12.74
O      10.51       5.66       6.21
O      13.25       6.08       6.15
O       5.04       2.45      12.61
O       4.03       5.04      12.68
