13

C       7.31       2.27       9.70
O       9.83      -0.64      11.10
Zn       9.98       0.05       9.25
Zn       8.23       1.92       7.49
O       7.87       0.44       6.35
O       9.33      -0.81       7.57
C       8.58      -0.61       6.57
O       7.01       2.96       8.65
O       8.14       1.29       9.60
C      10.90       2.61       8.12
C      10.84      -1.46      11.02
O       9.98       2.66       7.23
O      11.09       1.66       8.94
