13

Zn       7.55      15.15      16.35
C       6.70      16.65      14.58
Zn       9.31      13.28      18.11
C       6.63      12.58      17.48
O       7.56      12.53      18.38
O       6.45      13.53      16.66
C      10.23      12.93      15.91
O       7.70      15.83      14.50
O       9.66      14.75      19.25
O       8.20      16.01      18.03
C       8.96      15.81      19.03
O      10.52      12.23      16.96
O       9.40      13.90      16.01
