13

H       2.57      10.15      10.80
H      -0.15       9.88      11.21
O       4.44       8.62      14.25
O       1.74       8.80      13.69
O       4.92       9.36      12.15
O      -0.66       8.23      15.05
O      -1.82       8.68      13.19
C       4.11       9.06      13.10
C       2.68       9.24      12.79
C       2.06       9.75      11.67
C       0.66       9.61      11.88
C       0.51       9.03      13.12
C      -0.70       8.61      13.84
