20

Y       6.74       9.50       8.10
Y       6.58      12.45       3.62
C       8.84       8.69       9.86
C       8.72      11.27       6.09
C       5.14      11.09       9.80
C       4.48      13.25       1.87
C       4.60      10.67       5.64
C       8.18      10.86       1.92
O       7.97       9.53      10.23
O       8.80       8.21       8.69
O       8.18      10.95       7.17
O       8.12      11.72       5.08
O       4.91       9.86       9.62
O       6.08      11.67       9.19
O       5.35      12.41       1.49
O       4.52      13.74       3.03
O       5.14      11.00       4.55
O       5.20      10.23       6.64
O       8.41      12.09       2.10
O       7.24      10.28       2.54
