14

O       0.58       0.47       7.21
O      -1.35       1.15       8.12
O      -3.97      -0.50       6.73
C      -1.07      -1.76       5.85
C      -2.91      -0.95       6.41
C      -1.43      -0.63       6.56
O      -4.06      -4.46       4.23
O      -2.13      -5.15       3.32
C      -0.69       0.40       7.30
O       0.49      -3.50       4.71
C      -2.41      -2.23       5.59
C      -0.57      -3.04       5.03
C      -2.05      -3.37       4.88
C      -2.78      -4.40       4.14
