72

H      -0.93       3.56      17.82
H       1.36       1.10      37.34
H      -1.15       3.42      20.26
H       1.57       1.23      34.91
H      -2.77       2.29      37.06
H       3.19       2.36      18.10
H       1.07       5.22      31.27
H      -0.65      -0.57      23.90
H       1.29       5.43      28.93
H      -0.87      -0.79      26.23
H       1.01       5.71      26.93
H      -0.58      -1.06      28.24
C       1.30       3.10      16.34
C      -0.87       1.55      38.83
C       0.97       3.83      22.76
C      -0.54       0.82      32.40
C       0.24       1.57      22.55
C       0.18       3.08      32.61
C       2.13       2.48      19.98
C      -1.71       2.17      35.19
C       2.25       2.59      18.58
C      -1.82       2.06      36.58
C      -0.07       3.26      18.41
C       0.50       1.39      36.76
C      -0.20       3.18      19.79
C       0.62       1.47      35.37
C       0.89       2.80      20.58
C      -0.47       1.85      34.58
C       0.37       2.57      24.76
C       0.05       2.07      30.41
C       0.77       3.80      24.16
C      -0.34       0.85      31.00
C       0.97       4.93      24.98
C      -0.54      -0.28      30.18
C       0.08       1.47      23.94
C       0.35       3.18      31.23
C       1.15       2.98      17.80
C      -0.73       1.67      37.37
C       0.54       3.43      28.41
C      -0.11       1.21      26.75
C      -0.16       1.08      28.17
C       0.58       3.57      27.00
C       0.14       2.19      28.99
C       0.28       2.45      26.17
C       0.90       4.49      29.28
C      -0.48       0.16      25.89
C       0.80       4.37      30.65
C      -0.38       0.28      24.51
C       0.88       4.80      26.37
C      -0.45      -0.15      28.80
N       0.71       2.73      22.00
N      -0.28       1.92      33.16
N       1.18       6.24      24.44
N      -0.76      -1.59      30.72
N      -2.85       2.62      34.42
N       3.27       2.02      20.74
O       0.23       3.03      15.59
O       0.20       1.62      39.58
O       2.49       3.26      15.84
O      -2.06       1.39      39.32
O       1.47       4.93      22.16
O      -1.04      -0.28      33.00
O       0.47       4.13      33.41
O      -0.05       0.52      21.76
O       2.13       6.99      24.93
O       0.28       6.78      23.67
O      -1.70      -2.35      30.23
O       0.15      -2.13      31.49
O      -2.90       2.47      33.13
O      -3.86       3.18      35.02
O       4.30       1.49      20.14
O       3.31       2.14      22.04
