115

Cu       3.40       4.80       7.92
Cu       6.11       4.80       7.92
H       2.85       5.38      14.77
H       6.61       5.20      14.79
H       1.87       0.62       4.11
H       1.93       8.94       4.12
H       3.26       7.72       5.74
H       2.53       3.66      14.56
H       3.07       6.40       1.17
H       6.24       0.67       9.26
H       3.20       1.87       5.72
H       7.47       9.22       9.49
H       6.73       8.44      11.57
H       5.03       8.38      10.96
H       5.82      -0.82      11.24
H       8.33       2.41       6.04
H       7.69       3.37       3.92
H       9.43       3.68       4.27
H       8.19       4.99       4.53
H       2.37       3.55       0.67
H       0.33       4.15       1.67
H       0.62       5.34       0.35
H       0.98       5.78       2.07
H       7.16       6.42       9.89
H       8.20       6.65      12.05
H       0.98       6.58      12.19
H       2.95       6.94      10.83
H       2.83       8.98       9.66
H       1.25       8.72      10.46
H       1.44       8.35       8.69
H       1.19       3.63       6.20
H       6.34       3.58       1.04
H       4.84       1.69       0.47
H       4.36       1.00       2.52
H       3.76       2.60       2.99
H       5.56       2.28       2.92
H       3.37       1.59      14.63
H       3.59       1.95      12.30
H       4.22       0.31      12.69
H       5.37       1.66      12.39
H       6.85       3.01      13.60
H       7.01       0.78      15.61
H       8.30       1.34      14.50
H       6.84       0.54      13.83
H       6.54       7.25       2.57
H       5.04       9.10       2.56
H       4.11       7.61       2.88
H       4.10       8.37       1.24
H       6.84       5.70       1.03
H       5.75       7.34      15.50
H       4.96       8.29      13.65
H       4.00       6.85      13.23
H       5.81       6.84      13.00
C       4.74       2.25       7.83
C       3.23       4.37      15.05
C       4.68       4.19      14.52
C       5.58       5.29      15.21
C       5.83       6.17       0.90
C       4.69       4.35      13.06
C       4.76       5.00       2.78
C       4.77       4.99       3.98
C       3.19       0.79       5.80
C       2.44       0.09       4.86
C       2.49       9.49       4.87
C       4.77       4.96       5.39
C       3.24       8.80       5.82
C       3.99       9.49       6.80
C       3.95       0.12       6.78
C       4.75       0.81       7.72
C       5.60       0.13       8.57
C       5.64       9.54       8.61
C       4.79       8.82       7.76
C       8.16       6.08       9.98
C       8.77       6.30      11.20
C       0.50       6.21      11.29
C       4.76       7.36       7.87
C       1.24       6.07      10.11
C       0.64       5.44       8.96
C       8.84       5.44       8.94
C       8.87       4.16       6.96
C       0.65       4.17       6.97
C       4.73       4.61      10.45
C       3.36       5.42       0.76
C       5.30       3.72       0.66
C       5.18       2.71      14.91
C       4.72       4.48      11.87
C       4.78       5.06       1.32
C       5.99       8.93      10.90
C       8.39       3.89       4.60
C       1.00       4.97       1.32
C       1.94       8.32       9.68
C       4.58       2.09       2.44
C       4.39       1.40      12.83
C       7.20       1.23      14.61
C       4.72       8.13       2.12
C       4.98       7.18      13.64
N       8.15       4.81       7.93
N       1.36       4.81       7.93
N       6.49       8.89       9.55
N       8.18       3.43       5.95
N       2.35       4.45       1.17
N       2.34       6.96      10.00
N       4.58       2.50       1.05
N       4.33       1.69      14.25
N       6.58       2.54      14.48
N       5.89       7.35       1.78
N       5.15       6.68      14.99
O       3.60       2.86       7.92
O       5.89       2.86       7.92
O       3.63       4.95       6.01
O       5.92       4.95       6.01
O       3.61       6.75       7.92
O       5.90       6.75       7.92
O       3.59       4.66       9.83
O       5.88       4.66       9.83
