1008

H      23.99      34.18       5.69
H      25.08      30.73       7.83
H      21.97      34.09       0.02
H      25.36      32.94       2.23
H      24.96      30.27       2.92
H      21.21      33.87       4.79
H      23.99      17.82      11.13
H      25.08      21.40      13.04
H      21.97      12.96      14.04
H      25.37      15.45      13.93
H      24.96      17.38      15.89
H      21.21      17.20      11.85
H      23.99      30.71      22.57
H      25.08      30.58      18.51
H      21.97      35.67      25.33
H      25.36      34.32      23.23
H      24.96      35.06      20.58
H      21.21      31.64      22.76
H      10.86      -4.21      35.10
H      11.95      -0.76      32.96
H       8.85      -4.12      40.78
H      12.24      -2.98      38.56
H      11.83      -0.31      37.87
H       8.08      -3.90      36.00
H      10.86      12.14      29.67
H      11.95       8.56      27.75
H       8.84      17.01      26.75
H      12.23      14.52      26.87
H      11.83      12.59      24.90
H       8.08      12.77      28.95
H      10.86      -0.74      18.22
H      11.95      -0.61      22.28
H       8.85      -5.70      15.46
H      12.24      -4.35      17.57
H      11.83      -5.09      20.22
H       8.08      -1.68      18.04
H       0.40       9.02      35.09
H      25.56       5.56      32.96
H       2.42       8.94      40.77
H      25.29       7.76      38.56
H      25.69       5.11      37.87
H       3.17       8.73      35.99
H       0.40      -7.35      29.68
H      25.57      -3.77      27.76
H       2.41     -12.22      26.78
H      25.29      -9.72      26.87
H      25.69      -7.80      24.91
H       3.17      -7.98      28.98
H       0.40       5.52      18.22
H      25.57       5.40      22.28
H       2.42      10.47      15.44
H      25.29       9.15      17.57
H      25.69       9.88      20.21
H       3.18       6.44      18.02
H      13.53      20.95       5.70
H      12.44      24.40       7.84
H      15.54      21.02       0.03
H      12.16      22.20       2.24
H      12.56      24.85       2.93
H      16.30      21.24       4.80
H      13.53      37.31      11.11
H      12.44      33.74      13.03
H      15.54      42.19      14.01
H      12.16      39.69      13.93
H      12.57      37.76      15.88
H      16.30      37.95      11.81
H      13.53      24.45      22.58
H      12.44      24.57      18.52
H      15.54      19.50      25.35
H      12.16      20.82      23.23
H      12.56      20.09      20.58
H      16.30      23.52      22.78
H       0.44      -4.20      35.11
H      25.54      -0.77      32.97
H       2.42      -4.11      40.78
H      25.29      -2.97      38.57
H      25.66      -0.31      37.88
H       3.20      -3.88      36.01
H       0.44      12.14      29.66
H      25.54       8.57      27.75
H       2.43      17.01      26.74
H      25.29      14.52      26.86
H      25.66      12.59      24.90
H       3.19      12.77      28.93
H       0.44      -0.75      18.23
H      25.54      -0.61      22.27
H       2.43      -5.71      15.47
H      25.29      -4.36      17.57
H      25.66      -5.10      20.22
H       3.20      -1.70      18.05
H      13.57      34.17       5.68
H      12.42      30.74       7.83
H      15.55      34.08       0.01
H      12.16      32.94       2.23
H      12.53      30.27       2.92
H      16.32      33.85       4.78
H      13.56      17.82      11.14
H      12.41      21.39      13.04
H      15.56      12.95      14.05
H      12.16      15.44      13.93
H      12.53      17.37      15.89
H      16.32      17.20      11.87
H      13.57      30.72      22.57
H      12.42      30.58      18.52
H      15.55      35.68      25.33
H      12.16      34.33      23.23
H      12.53      35.06      20.58
H      16.32      31.66      22.74
H      23.95      20.96       5.69
H      25.10      24.40       7.83
H      21.96      21.04       0.02
H      25.34      22.21       2.23
H      24.98      24.86       2.92
H      21.20      21.26       4.79
H      23.95      37.31      11.12
H      25.10      33.75      13.03
H      21.96      42.19      14.02
H      25.34      39.69      13.94
H      24.98      37.77      15.88
H      21.19      37.95      11.83
H      23.95      24.43      22.57
H      25.10      24.57      18.53
H      21.96      19.48      25.35
H      25.34      20.81      23.22
H      24.98      20.09      20.58
H      21.19      23.50      22.77
H      10.82       9.01      35.10
H      11.97       5.57      32.97
H       8.83       8.93      40.77
H      12.22       7.76      38.57
H      11.85       5.11      37.87
H       8.07       8.71      36.00
H      10.82      -7.35      29.67
H      11.97      -3.78      27.76
H       8.83     -12.23      26.77
H      12.21      -9.72      26.86
H      11.85      -7.80      24.91
H       8.06      -7.98      28.96
H      10.82       5.53      18.22
H      11.97       5.40      22.26
H       8.83      10.48      15.45
H      12.22       9.16      17.57
H      11.85       9.88      20.21
H       8.07       6.46      18.03
H      23.32      33.18      11.27
H      23.32      31.98       9.22
H      25.81      34.91       7.48
H       0.63      36.17       9.98
H      23.32      23.15       9.20
H      23.33      21.98      11.27
H      25.82      19.01       9.59
H       0.63      20.54       7.26
H      23.32      26.38      18.92
H      23.33      28.75      18.90
H      25.81      28.79      22.31
H       0.63      26.00      22.16
H      10.19      -3.22      29.53
H      10.20      -2.01      31.58
H      12.69      -4.95      33.31
H      13.75      -6.20      30.82
H      10.20       6.81      31.59
H      10.20       7.99      29.53
H      12.69      10.96      31.20
H      13.76       9.43      33.53
H      10.19       3.59      21.87
H      10.19       1.21      21.89
H      12.69       1.18      18.48
H      13.75       3.96      18.64
H       1.06       8.01      29.52
H       1.06       6.81      31.57
H      24.83       9.75      33.30
H      23.76      11.00      30.81
H       1.06      -2.01      31.60
H       1.06      -3.19      29.54
H      24.83      -6.16      31.21
H      23.76      -4.63      33.54
H       1.06       1.19      21.88
H       1.06       3.57      21.89
H      24.83       3.60      18.48
H      23.76       0.82      18.64
H      14.19      21.95      11.28
H      14.19      23.15       9.23
H      11.70      20.22       7.49
H      10.63      18.97       9.98
H      14.19      31.98       9.19
H      14.19      33.16      11.26
H      11.70      36.13       9.58
H      10.63      34.60       7.25
H      14.19      28.77      18.92
H      14.19      26.40      18.91
H      11.70      26.36      22.31
H      10.63      29.15      22.15
H      19.97      31.59       1.88
H      17.58      31.58       1.87
H      17.54      35.80       2.00
H      20.32      36.41       1.12
H      19.97      15.83      15.27
H      17.58      15.83      15.28
H      17.55      13.81      11.57
H      20.31      12.74      11.49
H      19.97      35.30      22.24
H      17.58      35.31      22.23
H      17.54      33.09      25.82
H      20.31      33.55      26.79
H       6.84      -1.63      38.91
H       4.45      -1.61      38.92
H       4.42      -5.83      38.80
H       7.18      -6.44      39.67
H       6.84      14.14      25.53
H       4.45      14.15      25.51
H       4.42      16.16      29.22
H       7.18      17.22      29.31
H       6.84      -5.34      18.55
H       4.45      -5.35      18.56
H       4.42      -3.13      14.97
H       7.19      -3.58      14.01
H       4.42       6.46      38.96
H       6.81       6.45      38.97
H       6.84      10.66      38.72
H       4.06      11.29      39.58
H       4.42      -9.43      25.53
H       6.81      -9.43      25.52
H       6.84     -11.30      29.30
H       4.06     -12.36      29.41
H       4.42      10.16      18.49
H       6.81      10.17      18.50
H       6.84       7.83      14.98
H       4.06       8.26      14.01
H      17.55      23.51       1.83
H      19.94      23.52       1.83
H      19.97      19.31       2.07
H      17.19      18.68       1.21
H      17.55      39.39      15.26
H      19.94      39.39      15.28
H      19.97      41.27      11.50
H      17.19      42.33      11.38
H      17.55      19.81      22.30
H      19.94      19.80      22.30
H      19.97      22.13      25.81
H      17.19      21.70      26.78
H      24.69       6.34      43.21
H      25.96       6.34      41.18
H      25.98      10.57      41.18
H      25.25      36.25       0.43
H      24.68      13.88      16.47
H      25.96      12.13      17.49
H      25.98      10.02      13.83
H      25.26      12.23      11.96
H      24.68     -13.04      23.31
H      25.96     -11.28      24.33
H      25.98     -13.39      27.98
H      25.26      34.23      27.00
H      11.55      -1.55      41.19
H      12.83      -1.55      43.22
H      12.85      -5.78      43.22
H      12.13      -6.29      40.36
H      11.55      16.08      24.32
H      12.83      17.84      23.31
H      12.85      19.95      26.96
H      12.13      17.74      28.83
H      11.56      -7.34      17.48
H      12.83      -9.10      16.47
H      12.85      -6.99      12.81
H      12.13      -4.26      13.80
H      25.98      -1.54      41.20
H      24.69      -1.54      43.22
H      24.65      -5.76      43.21
H      25.39      -6.27      40.36
H      25.98      16.09      24.31
H      24.69      17.84      23.30
H      24.65      19.94      26.96
H      25.39      17.72      28.83
H      25.98      -7.36      17.48
H      24.69      -9.11      16.47
H      24.65      -6.98      12.82
H      25.39      -4.26      13.81
H      12.85       6.34      43.20
H      11.56       6.34      41.18
H      11.52      10.56      41.19
H      12.26      36.24       0.44
H      12.85      13.88      16.48
H      11.56      12.13      17.50
H      11.52      10.03      13.83
H      12.26      12.24      11.97
H      12.85     -13.03      23.31
H      11.56     -11.28      24.32
H      11.52     -13.40      27.97
H      12.26      34.23      26.98
H       0.21      28.77       4.55
H       0.22      26.38       4.54
H      23.18      26.34       7.17
H      22.17      29.08       6.72
H       0.21      19.54      16.38
H       0.22      20.73      18.46
H      23.18      23.02      17.17
H      22.17      21.27      15.03
H       0.21      34.40      18.46
H       0.22      35.61      16.39
H      23.18      33.34      15.05
H      22.17      32.36      17.64
H      13.34       1.19      36.24
H      13.35       3.59      36.25
H      10.05       3.62      33.62
H       9.04       0.89      34.07
H      13.34      10.43      24.42
H      13.35       9.24      22.34
H      10.05       6.94      23.62
H       9.04       8.70      25.77
H      13.34      -4.43      22.33
H      13.35      -5.64      24.40
H      10.05      -3.38      25.75
H       9.04      -2.40      23.15
H      24.18       3.61      36.24
H      24.16       1.22      36.25
H       1.21       1.18      33.62
H       2.22       3.91      34.07
H      24.18      -5.64      24.43
H      24.16      -4.46      22.35
H       1.21      -2.16      23.63
H       2.22      -3.91      25.77
H      24.18       9.22      22.32
H      24.16      10.43      24.39
H       1.21       8.17      25.74
H       2.22       7.18      23.15
H      11.05      26.35       4.55
H      11.04      28.75       4.54
H      14.33      28.79       7.17
H      15.35      26.05       6.72
H      11.05      35.61      16.36
H      11.04      34.42      18.45
H      14.34      32.12      17.16
H      15.35      33.87      15.02
H      11.05      20.75      18.47
H      11.04      19.54      16.41
H      14.33      21.80      15.05
H      15.35      22.78      17.64
C      24.13      32.43       4.52
C      24.24      33.19       5.71
C      24.59      32.58       6.94
C      24.84      31.19       6.95
C      24.73      30.40       5.78
C      24.38      31.03       4.56
C      23.57      33.01       3.36
C      22.18      33.26       3.28
C      21.59      33.67       2.06
C      22.41      33.85       0.92
C      23.79      33.60       0.98
C      24.37      33.17       2.20
C      24.13      17.69      13.23
C      24.24      18.33      11.98
C      24.59      19.70      11.89
C      24.85      20.41      13.09
C      24.74      19.79      14.35
C      24.39      18.42      14.42
C      23.57      16.38      13.30
C      22.18      16.19      13.12
C      21.59      14.93      13.39
C      22.41      13.85      13.80
C      23.80      14.03      13.98
C      24.37      15.30      13.74
C      24.13      32.60      21.64
C      24.24      31.19      21.70
C      24.59      30.43      20.57
C      24.84      31.11      19.35
C      24.73      32.52      19.26
C      24.38      33.26      20.41
C      23.57      33.31      22.73
C      22.18      33.25      22.99
C      21.59      34.11      23.95
C      22.41      35.01      24.67
C      23.79      35.08      24.43
C      24.37      34.24      23.45
C      11.00      -2.46      36.27
C      11.11      -3.22      35.09
C      11.46      -2.61      33.86
C      11.71      -1.22      33.85
C      11.61      -0.44      35.01
C      11.26      -1.07      36.24
C      10.44      -3.05      37.44
C       9.05      -3.30      37.51
C       8.46      -3.70      38.74
C       9.28      -3.89      39.88
C      10.67      -3.64      39.81
C      11.24      -3.21      38.60
C      11.00      12.28      27.57
C      11.11      11.63      28.82
C      11.46      10.26      28.91
C      11.72       9.56      27.71
C      11.61      10.18      26.44
C      11.26      11.55      26.38
C      10.44      13.58      27.49
C       9.05      13.77      27.67
C       8.46      15.04      27.41
C       9.28      16.11      27.00
C      10.67      15.93      26.81
C      11.24      14.67      27.05
C      11.00      -2.63      19.16
C      11.11      -1.22      19.09
C      11.46      -0.46      20.23
C      11.71      -1.15      21.44
C      11.60      -2.55      21.54
C      11.25      -3.30      20.38
C      10.44      -3.35      18.06
C       9.05      -3.29      17.81
C       8.46      -4.14      16.85
C       9.28      -5.04      16.12
C      10.67      -5.11      16.36
C      11.24      -4.27      17.35
C       0.27       7.26      36.27
C       0.15       8.02      35.08
C      26.06       7.41      33.85
C      25.80       6.02      33.84
C      25.91       5.24      35.01
C       0.01       5.87      36.23
C       0.82       7.86      37.43
C       2.21       8.12      37.50
C       2.80       8.53      38.73
C       1.98       8.70      39.87
C       0.60       8.44      39.81
C       0.03       8.01      38.59
C       0.27      -7.49      27.58
C       0.15      -6.84      28.83
C      26.06      -5.47      28.91
C      25.80      -4.77      27.72
C      25.91      -5.39      26.45
C       0.01      -6.76      26.39
C       0.82      -8.79      27.51
C       2.21      -8.99      27.70
C       2.80     -10.25      27.44
C       1.98     -11.33      27.03
C       0.60     -11.14      26.83
C       0.03      -9.87      27.06
C       0.27       7.41      19.15
C       0.16       6.00      19.08
C      26.06       5.25      20.22
C      25.80       5.93      21.43
C      25.92       7.34      21.53
C       0.01       8.08      20.37
C       0.82       8.13      18.05
C       2.21       8.06      17.79
C       2.80       8.91      16.82
C       1.98       9.81      16.10
C       0.60       9.89      16.35
C       0.03       9.05      17.34
C      13.39      22.70       4.53
C      13.28      21.94       5.72
C      12.93      22.55       6.94
C      12.68      23.94       6.95
C      12.79      24.73       5.78
C      13.14      24.10       4.56
C      13.95      22.11       3.36
C      15.34      21.85       3.29
C      15.92      21.44       2.07
C      15.11      21.26       0.93
C      13.72      21.52       0.99
C      13.15      21.96       2.20
C      13.39      37.45      13.21
C      13.28      36.80      11.96
C      12.93      35.44      11.88
C      12.68      34.73      13.08
C      12.79      35.35      14.34
C      13.14      36.73      14.40
C      13.95      38.76      13.29
C      15.34      38.95      13.09
C      15.93      40.22      13.35
C      15.11      41.29      13.77
C      13.73      41.11      13.97
C      13.16      39.84      13.74
C      13.39      22.55      21.65
C      13.28      23.96      21.71
C      12.93      24.72      20.57
C      12.68      24.03      19.36
C      12.79      22.63      19.27
C      13.14      21.89      20.42
C      13.95      21.84      22.74
C      15.34      21.91      23.00
C      15.92      21.05      23.97
C      15.11      20.16      24.69
C      13.72      20.08      24.44
C      13.15      20.91      23.45
C       0.27      -2.45      36.28
C       0.17      -3.21      35.09
C      26.05      -2.62      33.87
C      25.79      -1.23      33.85
C      25.89      -0.44      35.02
C      26.25      -1.06      36.24
C       0.83      -3.04      37.45
C       2.22      -3.28      37.52
C       2.81      -3.69      38.75
C       1.99      -3.87      39.88
C       0.61      -3.63      39.82
C       0.03      -3.20      38.60
C       0.27      12.28      27.56
C       0.17      11.63      28.81
C      26.05      10.27      28.90
C      25.79       9.57      27.71
C      25.89      10.19      26.44
C      26.25      11.56      26.37
C       0.83      13.58      27.48
C       2.22      13.77      27.65
C       2.81      15.04      27.39
C       1.99      16.12      26.99
C       0.60      15.94      26.80
C       0.03      14.67      27.04
C       0.27      -2.64      19.16
C       0.17      -1.23      19.09
C      26.05      -0.47      20.22
C      25.79      -1.15      21.43
C      25.89      -2.56      21.53
C      26.25      -3.30      20.38
C       0.83      -3.36      18.07
C       2.22      -3.30      17.82
C       2.81      -4.16      16.85
C       2.00      -5.05      16.12
C       0.61      -5.12      16.37
C       0.04      -4.28      17.35
C      13.40      32.42       4.51
C      13.30      33.18       5.70
C      12.92      32.58       6.93
C      12.66      31.19       6.94
C      12.76      30.41       5.77
C      13.12      31.03       4.55
C      13.96      33.00       3.35
C      15.35      33.25       3.27
C      15.94      33.66       2.05
C      15.12      33.84       0.91
C      13.73      33.60       0.97
C      13.16      33.17       2.19
C      13.40      17.68      13.24
C      13.30      18.33      11.99
C      12.92      19.69      11.89
C      12.66      20.40      13.09
C      12.76      19.78      14.35
C      13.12      18.41      14.42
C      13.96      16.38      13.32
C      15.35      16.19      13.14
C      15.94      14.93      13.40
C      15.12      13.85      13.81
C      13.74      14.03      13.99
C      13.16      15.30      13.75
C      13.40      32.61      21.64
C      13.30      31.20      21.70
C      12.93      30.44      20.57
C      12.66      31.12      19.36
C      12.76      32.52      19.27
C      13.12      33.27      20.42
C      13.96      33.33      22.73
C      15.35      33.27      22.98
C      15.94      34.12      23.94
C      15.12      35.02      24.67
C      13.73      35.09      24.43
C      13.16      34.25      23.44
C      24.11      22.71       4.52
C      24.21      21.95       5.71
C      24.59      22.55       6.93
C      24.85      23.94       6.95
C      24.75      24.72       5.78
C      24.39      24.10       4.56
C      23.55      22.12       3.35
C      22.16      21.86       3.28
C      21.58      21.45       2.06
C      22.39      21.27       0.92
C      23.78      21.53       0.98
C      24.35      21.97       2.20
C      24.11      37.46      13.23
C      24.21      36.81      11.97
C      24.59      35.45      11.88
C      24.85      34.74      13.08
C      24.75      35.36      14.34
C      24.39      36.73      14.41
C      23.55      38.76      13.30
C      22.16      38.95      13.11
C      21.58      40.22      13.37
C      22.39      41.29      13.78
C      23.78      41.11      13.98
C      24.35      39.84      13.75
C      24.11      22.54      21.65
C      24.21      23.95      21.71
C      24.59      24.71      20.58
C      24.85      24.03      19.37
C      24.75      22.62      19.27
C      24.39      21.88      20.43
C      23.55      21.83      22.74
C      22.16      21.89      23.00
C      21.58      21.04      23.97
C      22.39      20.14      24.69
C      23.78      20.06      24.43
C      24.35      20.90      23.45
C      10.98       7.26      36.27
C      11.09       8.02      35.09
C      11.46       7.42      33.86
C      11.73       6.03      33.85
C      11.62       5.24      35.02
C      11.26       5.87      36.24
C      10.43       7.84      37.44
C       9.04       8.10      37.51
C       8.45       8.52      38.74
C       9.26       8.70      39.87
C      10.65       8.44      39.82
C      11.22       8.00      38.60
C      10.98      -7.49      27.57
C      11.08      -6.84      28.82
C      11.46      -5.48      28.91
C      11.72      -4.78      27.72
C      11.62      -5.40      26.45
C      11.26      -6.77      26.38
C      10.42      -8.79      27.49
C       9.03      -8.99      27.68
C       8.45     -10.25      27.43
C       9.26     -11.33      27.01
C      10.65     -11.15      26.82
C      11.22      -9.87      27.05
C      10.98       7.42      19.15
C      11.08       6.01      19.09
C      11.46       5.25      20.22
C      11.72       5.94      21.43
C      11.62       7.34      21.52
C      11.26       8.09      20.37
C      10.43       8.14      18.06
C       9.04       8.07      17.80
C       8.45       8.92      16.83
C       9.27       9.82      16.10
C      10.65       9.90      16.36
C      11.22       9.07      17.35
C      24.58      33.32       8.15
C      23.87      32.85       9.28
C      23.87      33.56      10.49
C      24.59      34.77      10.63
C      25.30      35.26       9.50
C      25.28      34.55       8.28
C      24.58      20.38      10.64
C      23.87      21.59      10.49
C      23.87      22.29       9.27
C      24.59      21.80       8.15
C      25.30      20.58       8.29
C      25.28      19.88       9.51
C      24.58      29.00      20.60
C      23.87      28.27      19.63
C      23.87      26.86      19.64
C      24.59      26.14      20.61
C      25.30      26.87      21.60
C      25.28      28.28      21.60
C      11.45      -3.36      32.64
C      10.74      -2.88      31.52
C      10.74      -3.59      30.31
C      11.46      -4.80      30.17
C      12.17      -5.29      31.30
C      12.15      -4.58      32.52
C      11.46       9.58      30.16
C      10.74       8.37      30.31
C      10.74       7.68      31.53
C      11.46       8.16      32.64
C      12.17       9.39      32.51
C      12.15      10.09      31.28
C      11.45       0.96      20.19
C      10.74       1.70      21.17
C      10.74       3.10      21.16
C      11.46       3.83      20.18
C      12.17       3.09      19.19
C      12.15       1.68      19.19
C      26.06       8.16      32.63
C       0.52       7.68      31.51
C       0.52       8.39      30.30
C      26.05       9.60      30.16
C      25.35      10.09      31.29
C      25.37       9.38      32.51
C      26.06      -4.79      30.17
C       0.52      -3.58      30.31
C       0.52      -2.88      31.53
C      26.05      -3.36      32.65
C      25.35      -4.59      32.51
C      25.37      -5.29      31.29
C      26.06       3.82      20.19
C       0.52       3.09      21.17
C       0.52       1.68      21.16
C      26.05       0.96      20.18
C      25.35       1.69      19.19
C      25.37       3.10      19.19
C      12.93      21.81       8.16
C      13.65      22.29       9.28
C      13.65      21.58      10.50
C      12.92      20.37      10.63
C      12.22      19.88       9.51
C      12.24      20.59       8.28
C      12.94      34.75      10.63
C      13.65      33.54      10.48
C      13.65      32.85       9.26
C      12.93      33.33       8.14
C      12.22      34.55       8.28
C      12.24      35.26       9.50
C      12.94      26.15      20.60
C      13.65      26.88      19.63
C      13.65      28.28      19.63
C      12.93      29.01      20.61
C      12.22      28.28      21.60
C      12.24      26.87      21.60
C      17.35      33.69       1.91
C      18.07      32.48       1.87
C      19.47      32.49       1.87
C      20.18      33.71       1.92
C      19.46      34.93       1.93
C      18.05      34.92       1.93
C      17.35      14.80      13.44
C      18.07      15.37      14.51
C      19.47      15.37      14.50
C      20.18      14.80      13.42
C      19.47      14.19      12.36
C      18.05      14.20      12.37
C      17.35      34.22      24.04
C      18.07      34.87      23.01
C      19.47      34.86      23.02
C      20.18      34.21      24.05
C      19.46      33.59      25.10
C      18.05      33.59      25.09
C       4.22      -3.73      38.88
C       4.94      -2.51      38.92
C       6.34      -2.52      38.92
C       7.05      -3.74      38.87
C       6.34      -4.96      38.87
C       4.92      -4.95      38.86
C       4.22      15.17      27.36
C       4.94      14.60      26.29
C       6.34      14.60      26.30
C       7.05      15.17      27.38
C       6.34      15.78      28.43
C       4.92      15.77      28.43
C       4.22      -4.26      16.75
C       4.94      -4.90      17.78
C       6.34      -4.90      17.78
C       7.05      -4.24      16.74
C       6.34      -3.62      15.69
C       4.93      -3.63      15.70
C       7.04       8.56      38.87
C       6.32       7.35      38.95
C       4.92       7.35      38.94
C       4.21       8.57      38.86
C       4.92       9.79      38.82
C       6.33       9.78      38.81
C       7.04     -10.39      27.40
C       6.32      -9.86      26.31
C       4.92      -9.86      26.32
C       4.21     -10.39      27.41
C       4.92     -10.96      28.50
C       6.33     -10.94      28.49
C       7.04       9.02      16.72
C       6.32       9.70      17.73
C       4.92       9.69      17.73
C       4.21       9.01      16.72
C       4.92       8.35      15.68
C       6.34       8.35      15.70
C      20.17      21.41       1.93
C      19.45      22.62       1.85
C      18.04      22.61       1.85
C      17.33      21.40       1.93
C      18.05      20.18       1.98
C      19.46      20.19       1.98
C      20.17      40.36      13.40
C      19.45      39.82      14.49
C      18.05      39.82      14.48
C      17.34      40.36      13.38
C      18.05      40.92      12.30
C      19.46      40.91      12.31
C      20.17      20.95      24.07
C      19.45      20.27      23.06
C      18.04      20.28      23.07
C      17.33      20.96      24.08
C      18.05      21.61      25.11
C      19.46      21.61      25.10
C      26.08       8.46      40.99
C      25.70       7.24      41.60
C      24.96       7.24      42.79
C      24.57       8.46      43.40
C      24.96       9.68      42.80
C      25.71       9.67      41.61
C      26.08      10.91      15.75
C      25.69      12.04      16.50
C      24.96      13.08      15.90
C      24.57      12.99      14.54
C      24.96      11.86      13.79
C      25.71      10.83      14.39
C      26.08     -12.18      26.25
C      25.69     -12.09      24.89
C      24.95     -13.13      24.30
C      24.57     -14.26      25.05
C      24.96     -14.35      26.41
C      25.71     -13.32      27.00
C      12.95      -3.67      43.40
C      12.56      -2.45      42.80
C      11.83      -2.45      41.60
C      11.44      -3.67      41.00
C      11.83      -4.89      41.60
C      12.58      -4.88      42.79
C      12.95      19.06      25.04
C      12.56      17.93      24.29
C      11.82      16.89      24.89
C      11.44      16.97      26.25
C      11.83      18.11      27.01
C      12.58      19.14      26.40
C      12.95      -8.20      14.55
C      12.57      -8.29      15.90
C      11.83      -7.25      16.50
C      11.45      -6.12      15.75
C      11.83      -6.03      14.39
C      12.58      -7.06      13.80
C      24.55      -3.66      43.40
C      24.95      -2.44      42.80
C      25.70      -2.44      41.61
C      26.08      -3.66      41.00
C      25.69      -4.88      41.60
C      24.92      -4.87      42.78
C      24.55      19.05      25.04
C      24.95      17.92      24.29
C      25.70      16.89      24.88
C      26.08      16.97      26.24
C      25.69      18.10      27.00
C      24.92      19.13      26.40
C      24.56      -8.20      14.56
C      24.95      -8.29      15.91
C      25.70      -7.26      16.50
C      26.08      -6.13      15.75
C      25.69      -6.03      14.39
C      24.92      -7.06      13.81
C      11.43       8.45      41.00
C      11.82       7.23      41.60
C      12.57       7.24      42.79
C      12.95       8.45      43.39
C      12.56       9.68      42.80
C      11.79       9.67      41.61
C      11.43      10.92      15.75
C      11.83      12.04      16.51
C      12.57      13.07      15.91
C      12.95      12.99      14.56
C      12.56      11.86      13.79
C      11.79      10.84      14.39
C      11.43     -12.18      26.24
C      11.82     -12.09      24.89
C      12.57     -13.12      24.29
C      12.95     -14.25      25.04
C      12.56     -14.35      26.40
C      11.79     -13.32      26.99
C      24.84      26.14       5.87
C      25.79      26.87       5.12
C      25.78      28.27       5.12
C      24.82      28.99       5.87
C      23.87      28.26       6.64
C      23.90      26.85       6.64
C      24.84      22.00      18.00
C      25.79      20.98      17.75
C      25.78      20.28      16.53
C      24.82      20.58      15.53
C      23.87      21.61      15.78
C      23.90      22.31      17.00
C      24.84      34.57      15.52
C      25.79      34.86      16.53
C      25.78      34.15      17.74
C      24.82      33.15      17.99
C      23.87      32.85      16.97
C      23.90      33.55      15.75
C      11.71       3.83      34.93
C      12.66       3.10      35.68
C      12.65       1.69      35.67
C      11.69       0.98      34.92
C      10.74       1.71      34.15
C      10.77       3.12      34.15
C      11.71       7.97      22.79
C      12.66       8.99      23.05
C      12.65       9.68      24.27
C      11.69       9.39      25.26
C      10.74       8.36      25.01
C      10.77       7.65      23.80
C      11.71      -4.61      25.27
C      12.66      -4.90      24.27
C      12.65      -4.19      23.05
C      11.69      -3.18      22.81
C      10.74      -2.88      23.82
C      10.77      -3.58      25.05
C      25.80       0.98      34.93
C      24.85       1.71      35.68
C      24.87       3.11      35.67
C      25.83       3.82      34.92
C       0.52       3.09      34.15
C       0.49       1.68      34.15
C      25.80      -3.18      22.80
C      24.86      -4.20      23.06
C      24.87      -4.90      24.28
C      25.83      -4.60      25.27
C       0.52      -3.57      25.02
C       0.49      -2.86      23.80
C      25.80       9.40      25.26
C      24.86       9.68      24.25
C      24.87       8.97      23.04
C      25.83       7.97      22.80
C       0.52       7.67      23.82
C       0.49       8.37      25.04
C      12.67      28.99       5.87
C      11.73      28.26       5.11
C      11.74      26.85       5.12
C      12.70      26.14       5.87
C      13.65      26.87       6.64
C      13.62      28.28       6.64
C      12.67      33.15      17.99
C      11.73      34.17      17.73
C      11.74      34.86      16.51
C      12.70      34.57      15.52
C      13.65      33.54      15.77
C      13.62      32.83      16.99
C      12.67      20.57      15.53
C      11.73      20.28      16.54
C      11.74      20.99      17.75
C      12.70      22.00      17.99
C      13.65      22.30      16.98
C      13.62      21.60      15.76
O      24.13      30.27       3.46
O      21.39      33.00       4.36
O      24.13      17.84      15.63
O      21.39      17.26      12.81
O      24.13      34.60      20.30
O      21.39      32.45      22.22
O      11.00      -0.30      37.34
O       8.26      -3.03      36.43
O      11.00      12.12      25.16
O       8.26      12.70      27.98
O      11.00      -4.63      20.49
O       8.26      -2.48      18.58
O       0.26       5.11      37.34
O       3.00       7.86      36.42
O       0.26      -7.34      25.18
O       3.00      -7.92      28.02
O       0.26       9.42      20.48
O       3.01       7.25      18.55
O      13.39      24.86       3.46
O      16.13      22.11       4.37
O      13.39      37.30      15.62
O      16.13      37.89      12.78
O      13.39      20.55      20.31
O      16.13      22.72      22.24
O       0.23      -0.30      37.35
O       3.01      -3.02      36.44
O       0.23      12.13      25.15
O       3.01      12.70      27.96
O       0.23      -4.64      20.49
O       3.01      -2.50      18.59
O      13.36      30.26       3.45
O      16.14      32.98       4.35
O      13.36      17.84      15.64
O      16.14      17.26      12.83
O      13.36      34.61      20.30
O      16.14      32.47      22.21
O      24.15      24.86       3.45
O      21.37      22.12       4.36
O      24.15      37.31      15.63
O      21.37      37.89      12.80
O      24.15      20.54      20.31
O      21.37      22.70      22.23
O      11.02       5.10      37.34
O       8.24       7.84      36.43
O      11.02      -7.34      25.17
O       8.24      -7.92      28.00
O      11.02       9.43      20.48
O       8.24       7.27      18.56
O      26.03      36.41       9.55
O      26.03      20.05       7.27
O      26.03      26.25      22.57
O      12.90      -6.44      31.24
O      12.90       9.91      33.53
O      12.90       3.72      18.22
O      24.62      11.24      31.23
O      24.62      -5.11      33.54
O      24.62       1.07      18.22
O      11.49      18.73       9.56
O      11.49      35.08       7.26
O      11.49      28.90      22.57
O      20.11      36.12       2.04
O      20.11      13.68      11.28
O      20.11      32.90      26.08
O       6.98      -6.16      38.76
O       6.98      16.28      29.52
O       6.98      -2.93      14.71
O       4.28      10.98      38.67
O       4.28     -11.42      29.60
O       4.28       7.63      14.73
O      17.41      18.99       2.12
O      17.41      41.39      11.20
O      17.41      22.34      26.06
O      24.59      10.88      43.33
O      24.59      11.72      12.48
O      24.60     -15.42      27.18
O      11.47      -6.09      41.06
O      11.47      18.24      28.31
O      11.47      -4.97      13.62
O      26.05      -6.08      41.06
O      26.05      18.24      28.31
O      26.05      -4.97      13.62
O      12.92      10.87      43.33
O      12.92      11.73      12.49
O      12.92     -15.41      27.17
O      22.89      28.88       7.36
O      22.89      21.92      14.88
O      22.89      31.91      17.15
O       9.76       1.09      33.44
O       9.76       8.05      25.91
O       9.76      -1.95      23.65
O       1.50       3.71      33.44
O       1.50      -3.26      25.92
O       1.50       6.74      23.64
O      14.62      26.26       7.36
O      14.63      33.22      14.88
O      14.62      23.23      17.15
