21

C      13.20       8.59       6.52
C      13.24       7.87       5.35
C      12.09       6.76       6.91
C      12.33       5.60       4.72
C      12.21       4.30       5.23
C      12.03       3.24       4.34
C      12.01       3.45       2.96
C      12.16       4.76       2.47
C      12.30       5.83       3.34
C      11.91       2.29       2.02
N      12.49       7.89       7.47
N      12.53       6.69       5.61
O      11.82       2.51       0.76
O      11.96       1.11       2.51
H      13.63       9.56       6.74
H      13.68       8.08       4.39
H      11.49       6.00       7.39
H      12.28       4.11       6.30
H      11.96       2.22       4.71
H      12.19       4.93       1.39
H      12.38       6.85       2.95
