916

C      -9.77       7.79      21.71
C     -10.73       7.39      23.85
C     -11.33       6.01      21.99
C     -10.90       7.76      25.21
C     -10.16       8.84      25.77
C     -10.31       9.20      27.12
C     -11.20       8.50      27.96
C     -11.96       7.44      27.41
C     -11.81       7.08      26.06
C      -8.98       8.63      20.87
C      -8.00       9.49      21.42
C      -7.33      10.44      20.63
C      -7.65      10.58      19.26
C      -8.59       9.69      18.69
C      -9.24       8.73      19.48
C     -12.13       4.97      21.45
C     -12.11       4.67      20.07
C     -12.98       3.71      19.51
C     -13.90       3.01      20.33
C     -13.89       3.26      21.72
C     -13.03       4.22      22.27
C      -7.09      11.72      18.47
C      20.01       2.08      19.73
C       2.66      22.50       0.51
C      13.81      12.30       7.91
C      12.43      14.23       8.19
C      14.81      14.44       8.20
C      11.14      14.81       8.33
C       9.97      14.02       8.22
C       8.69      14.60       8.35
C       8.55      15.98       8.59
C       9.71      16.77       8.72
C      10.99      16.20       8.59
C      13.90      10.88       7.84
C      12.80      10.10       7.41
C      12.83       8.70       7.49
C      13.95       8.03       8.02
C      15.08       8.80       8.40
C      15.05      10.21       8.30
C      15.97      15.26       8.38
C      17.27      14.69       8.40
C      18.40      15.48       8.67
C      18.28      16.86       8.93
C      17.00      17.44       8.87
C      15.86      16.66       8.59
C      13.90       6.57       8.29
C      19.46      17.67       9.34
C       7.21      16.62       8.63
C     -10.23      17.55      12.98
C      -7.91      17.51      12.43
C      -8.67      16.52      14.47
C      -6.86      17.79      11.51
C      -7.11      18.48      10.30
C      -6.08      18.77       9.39
C      -4.75      18.37       9.67
C      -4.49      17.66      10.86
C      -5.53      17.37      11.77
C     -11.56      17.82      12.58
C     -11.84      18.78      11.57
C     -13.13      18.93      11.05
C     -14.20      18.12      11.51
C     -13.94      17.21      12.56
C     -12.65      17.07      13.09
C      -8.38      15.77      15.65
C      -9.42      15.34      16.51
C      -9.16      14.51      17.61
C      -7.84      14.08      17.90
C      -6.79      14.55      17.08
C      -7.06      15.37      15.97
C      19.38      18.16      10.83
C      -7.57      13.11      18.99
C      -3.63      18.75       8.78
C      16.02       1.40      14.82
C      16.03      -0.09      12.96
C      15.01       2.06      12.76
C      16.44      -1.32      12.37
C      17.13      -2.30      13.13
C      17.53      -3.52      12.56
C      17.24      -3.80      11.21
C      16.57      -2.82      10.44
C      16.18      -1.60      11.01
C      16.47       1.70      16.14
C      16.86       0.67      17.03
C      17.47       0.96      18.26
C      17.72       2.30      18.63
C      17.28       3.34      17.78
C      16.66       3.04      16.55
C      14.37       3.05      11.95
C      14.09       4.34      12.46
C      13.56       5.35      11.63
C      13.28       5.09      10.27
C      13.51       3.79       9.77
C      14.05       2.79      10.60
C      18.54       2.60      19.85
C      12.83       6.18       9.36
C       3.58      26.87      10.61
C       2.94      21.39       2.67
C       3.65      22.28       3.50
C       3.46      22.24       4.89
C       2.52      21.36       5.48
C       1.84      20.45       4.63
C       2.04      20.47       3.24
C       3.72      20.14       7.41
C       3.55      18.75       7.20
C       4.65      17.87       7.26
C       5.95      18.37       7.49
C       6.13      19.76       7.65
C       5.04      20.63       7.60
C       2.59      22.62       7.96
C       1.00      20.62       7.68
C       0.92      19.84       8.87
C      -0.32      19.52       9.44
C      -1.52      19.98       8.86
C      -1.46      20.78       7.70
C      -0.21      21.11       7.13
C       2.03      23.81       7.43
C       1.97      24.99       8.20
C       2.45      24.99       9.52
C       2.98      23.81      10.07
C       3.03      22.63       9.30
C      -4.07       4.07      15.82
C      -5.04       3.66      17.96
C      -5.64       2.28      16.10
C      -5.20       4.04      19.32
C      -4.47       5.11      19.88
C      -4.62       5.47      21.23
C      -5.51       4.77      22.07
C      -6.27       3.71      21.52
C      -6.11       3.35      20.17
C      -3.29       4.91      14.98
C      -2.30       5.76      15.53
C      -1.64       6.71      14.74
C      -1.96       6.85      13.37
C      -2.90       5.96      12.80
C      -3.55       5.00      13.59
C      -6.44       1.24      15.56
C      -6.42       0.94      14.18
C      -7.28      -0.02      13.62
C      -8.20      -0.72      14.44
C      -8.20      -0.47      15.83
C      -7.33       0.50      16.38
C      -1.40       7.99      12.58
C      25.70      -1.65      13.84
C      -5.61       5.07      23.52
C      19.50       8.57       2.02
C      18.13      10.51       2.30
C      20.51      10.72       2.31
C      16.84      11.09       2.44
C      15.66      10.30       2.33
C      14.39      10.87       2.46
C      14.24      12.25       2.70
C      15.40      13.04       2.83
C      16.68      12.47       2.70
C      19.59       7.16       1.95
C      18.49       6.38       1.52
C      18.52       4.97       1.60
C      19.64       4.31       2.13
C      20.77       5.08       2.51
C      20.75       6.48       2.41
C      21.67      11.53       2.49
C      22.96      10.96       2.51
C      24.10      11.75       2.78
C      23.97      13.13       3.04
C      22.69      13.72       2.98
C      21.56      12.93       2.71
C      19.59       2.84       2.40
C      25.15      13.94       3.45
C      12.90      12.89       2.74
C      -4.53      13.82       7.09
C      -2.21      13.78       6.54
C      -2.97      12.80       8.58
C      -1.17      14.06       5.62
C      -1.42      14.75       4.41
C      -0.38      15.04       3.50
C       0.94      14.64       3.78
C       1.20      13.93       4.97
C       0.17      13.65       5.88
C      -5.87      14.09       6.69
C      -6.14      15.05       5.68
C      -7.44      15.21       5.16
C      -8.50      14.40       5.62
C      -8.25      13.48       6.67
C      -6.95      13.34       7.20
C      -2.69      12.04       9.76
C      -3.73      11.61      10.62
C      -3.47      10.78      11.72
C      -2.15      10.36      12.01
C      -1.10      10.82      11.19
C      -1.37      11.65      10.08
C      25.08      14.43       4.94
C      -1.88       9.38      13.10
C       2.07      15.03       2.89
C      21.71      -2.33       8.93
C       7.75      28.17       7.07
C      20.70      -1.66       6.88
C       8.16      26.94       6.49
C       8.85      25.97       7.24
C       9.25      24.74       6.67
C       8.96      24.46       5.32
C       8.29      25.44       4.55
C       7.90      26.66       5.12
C      22.17      -2.03      10.25
C      22.56      -3.06      11.14
C      23.16      -2.76      12.37
C      23.42      -1.43      12.75
C      22.98      -0.39      11.89
C      22.35      -0.69      10.66
C      20.07      -0.68       6.06
C      19.79       0.61       6.57
C      19.25       1.62       5.74
C      18.98       1.37       4.38
C      19.21       0.07       3.88
C      19.74      -0.94       4.71
C      24.23      -1.13      13.96
C      18.53       2.46       3.47
C       9.27      23.14       4.72
C      -5.33       3.96      25.68
C      -4.62       4.85      26.51
C      -4.81       4.82      27.90
C      -5.75       3.93      28.49
C      -6.43       3.02      27.64
C      -6.23       3.05      26.25
C       9.41      16.41       1.52
C       9.25      15.02       1.31
C      10.34      14.14       1.37
C      11.64      14.65       1.60
C      11.83      16.03       1.76
C      10.73      16.91       1.71
C       8.28      18.89       2.07
C       6.69      16.89       1.79
C       6.61      16.11       2.98
C       5.37      15.79       3.55
C       4.18      16.25       2.97
C       4.24      17.05       1.81
C       5.48      17.38       1.24
C       7.72      20.08       1.54
C       7.67      21.26       2.31
C       8.15      21.27       3.63
C       8.68      20.08       4.18
C       8.72      18.90       3.41
C       1.62       0.34       9.93
C       0.66      -0.07      12.07
C       0.06      -1.44      10.21
C       0.49       0.31      13.44
C       1.23       1.38      13.99
C       1.08       1.75      15.34
C       0.18       1.04      16.18
C      -0.57      -0.01      15.63
C      -0.42      -0.38      14.28
C       2.41       1.18       9.09
C       3.39       2.03       9.64
C       4.05       2.99       8.85
C       3.73       3.13       7.48
C       2.79       2.24       6.91
C       2.15       1.27       7.70
C      -0.75      -2.49       9.67
C      -0.73      -2.78       8.29
C     -15.57      28.24       7.73
C     -16.48      27.54       8.55
C      -2.50      -4.19       9.94
C      -1.64      -3.23      10.49
C       4.29       4.26       6.69
C      17.42      26.61       7.95
C       0.08       1.34      17.63
C      11.23      -8.85      25.03
C       9.86      -6.92      25.31
C      12.24      -6.71      25.32
C       8.57      -6.34      25.45
C       7.39      -7.13      25.34
C       6.12      -6.56      25.47
C       5.97      -5.17      25.71
C       7.13      -4.38      25.84
C       8.41      -4.96      25.71
C      11.32     -10.27      24.96
C      10.22     -11.05      24.53
C      -3.73      19.54      24.61
C      -2.60      18.87      25.14
C      -1.48      19.64      25.52
C      12.48     -10.95      25.42
C      13.40      -5.89      25.50
C      14.69      -6.46      25.52
C      15.83      -5.68      25.79
C      15.70      -4.29      26.05
C      14.42      -3.71      25.99
C      13.29      -4.50      25.72
C      -2.65      17.40      25.41
C      16.88      -3.48      26.46
C       4.63      -4.53      25.75
C       1.16      10.09       1.21
C       3.48      10.05       0.65
C       2.72       9.07       2.69
C      -9.44      -3.36      28.63
C      -9.69      -2.67      27.42
C      -8.65      -2.39      26.51
C      -7.33      -2.78      26.79
C      -7.07      -3.49      27.98
C      -8.10      -3.78      28.89
C      -0.17      10.37       0.80
C     -14.41      -2.37      28.69
C     -15.71      -2.22      28.17
C     -16.77      -3.03      28.63
C      -2.55       9.75       0.78
C      -1.26       9.61       1.31
C       3.00       8.32       3.87
C       1.96       7.88       4.73
C       2.23       7.05       5.83
C       3.55       6.63       6.12
C       4.59       7.09       5.30
C       4.33       7.92       4.19
C      16.81      -3.00      27.95
C       3.82       5.65       7.21
C      -6.20      -2.40      25.90
C      13.43      25.94       3.05
C      13.44      24.45       1.18
C      12.42      26.60       0.99
C      13.85      23.22       0.60
C      14.55      22.24       1.35
C      14.94      21.02       0.78
C       0.69       7.04      28.33
C       0.02       8.01      27.56
C      -0.37       9.23      28.13
C      13.88      26.23       4.36
C      14.27      25.20       5.25
C      14.88      25.50       6.48
C      15.14      26.83       6.86
C      14.69      27.87       6.00
C      14.07      27.57       4.77
C      11.78      27.58       0.18
C      11.50      28.88       0.68
C      -2.99      16.18      28.75
C      -3.27      15.93      27.39
C      -3.04      14.63      26.89
C      -2.50      13.63      27.72
C      15.95      27.13       8.07
C      -3.72      17.02      26.48
C       1.00       5.71      27.73
C       0.36       0.24      19.79
C       1.07       1.12      20.62
C       0.88       1.09      22.02
C      -0.05       0.20      22.60
C      -0.73      -0.71      21.75
C      -0.54      -0.68      20.36
C       1.14      -1.01      24.53
C       0.98      -2.40      24.32
C       2.07      -3.28      24.38
C       3.37      -2.78      24.61
C       3.56      -1.40      24.77
C       2.46      -0.52      24.72
C       0.01       1.47      25.08
C      -1.58      -0.54      24.80
C      -1.66      -1.31      25.99
C      -2.90      -1.64      26.56
C      -4.09      -1.17      25.98
C      -4.03      -0.38      24.82
C      -2.79      -0.04      24.25
C      -0.55       2.66      24.55
C      -0.60       3.83      25.32
C      -0.12       3.84      26.64
C       0.41       2.66      27.19
C       0.45       1.48      26.42
C      -6.66      28.60       4.04
C      -7.63      28.19       6.18
C      -8.22      26.82       4.32
C       6.19      -3.42       7.55
C       6.92      -2.34       8.10
C       6.77      -1.98       9.45
C       5.88      -2.68      10.29
C       5.12      -3.74       9.74
C      -8.70      27.88       8.39
C      -5.88      29.44       3.20
C       9.09      -1.69       3.75
C       9.75      -0.74       2.96
C       9.43      -0.60       1.59
C      -5.49      30.50       1.02
C      -6.13      29.53       1.82
C      -9.03      25.77       3.78
C      -9.01      25.48       2.40
C      -9.87      24.52       1.84
C     -10.79      23.81       2.66
C     -10.79      24.07       4.05
C      -9.92      25.03       4.60
C       9.99       0.53       0.80
C      23.11      22.88       2.06
C       5.78      -2.38      11.74
C       2.95      19.41      19.14
C       1.58      21.34      19.42
C       3.96      21.55      19.43
C       0.28      21.92      19.56
C      -0.89      21.13      19.46
C      -2.17      21.70      19.58
C      11.66      -8.90      19.82
C      12.83      -8.11      19.96
C      14.10      -8.68      19.82
C       3.04      17.99      19.07
C       1.94      17.21      18.64
C       1.97      15.81      18.72
C       3.09      15.14      19.25
C       4.22      15.91      19.63
C       4.19      17.31      19.53
C       5.11      22.37      19.61
C       6.41      21.80      19.63
C      21.52      -9.40      19.90
C      21.40      -8.02      20.16
C      20.11      -7.44      20.10
C      18.98      -8.22      19.83
C       3.04      13.68      19.52
C      22.58      -7.21      20.57
C      10.33      -8.26      19.86
C      -7.11      -7.33      24.21
C      -4.79      -7.37      23.66
C      -5.55      -8.36      25.70
C      -3.74      -7.09      22.74
C      -3.99      -6.40      21.53
C      -2.96      -6.11      20.63
C      -1.63      -6.51      20.90
C      -1.37      -7.22      22.10
C      -2.41      -7.51      23.00
C      -8.45      -7.06      23.81
C      -8.72      -6.10      22.80
C     -10.02      -5.95      22.28
C     -11.08      -6.76      22.74
C     -10.82      -7.67      23.79
C      -9.53      -7.81      24.32
C      -5.27      -9.11      26.88
C      -6.31      -9.54      27.74
C      -6.04     -10.37      28.84
C       9.24       2.90       0.23
C      -3.68     -10.33      28.31
C      -3.94      -9.51      27.20
C      22.50      -6.72      22.06
C       9.51       1.93       1.32
C      -0.51      -6.13      20.01
C       5.16       8.51      26.06
C       5.17       7.02      24.19
C       4.15       9.17      24.00
C       5.58       5.79      23.61
C       6.28       4.81      24.36
C       6.67       3.59      23.79
C       6.38       3.31      22.44
C       5.71       4.28      21.67
C       5.32       5.51      22.24
C       5.61       8.81      27.37
C       6.00       7.78      28.26
C      20.58      21.77       0.59
C      20.83      23.11       0.97
C      20.39      24.14       0.11
C       5.80      10.15      27.78
C       3.51      10.16      23.19
C       3.23      11.45      23.69
C       2.70      12.46      22.86
C       2.42      12.20      21.50
C       2.65      10.90      21.00
C       3.19       9.90      21.83
C      21.64      23.41       2.18
C       1.97      13.29      20.60
C       6.70       1.99      21.84
C       6.06      -3.49      13.90
C       6.77      -2.60      14.73
C       6.57      -2.64      16.13
C       5.64      -3.52      16.71
C       4.96      -4.43      15.86
C       5.16      -4.41      14.47
C       6.84      -4.74      18.64
C       6.67      -6.13      18.43
C       7.77      -7.01      18.49
C       9.07      -6.51      18.72
C       9.25      -5.12      18.88
C       8.15      -4.25      18.83
C       5.71      -2.26      19.19
C       4.11      -4.26      18.92
C       4.04      -5.04      20.10
C       2.79      -5.36      20.67
C       1.60      -4.90      20.09
C       1.66      -4.10      18.93
C       2.90      -3.77      18.36
C       5.15      -1.07      18.66
C       5.09       0.11      19.43
C       5.57       0.11      20.75
C       6.10      -1.07      21.30
C       6.15      -2.25      20.53
H      -6.67      11.08      21.07
H      -7.77       9.46      22.42
H      -8.86       9.78      17.71
H      -9.96       8.15      19.05
H     -11.49       5.18      19.43
H     -12.96       3.56      18.50
H     -13.08       4.40      23.27
H     -14.55       2.77      22.33
H     -12.36       6.30      25.70
H     -12.61       6.91      27.99
H      -9.74       9.96      27.50
H      -9.49       9.37      25.21
H      -7.37      11.60      17.42
H      -6.00      11.67      18.51
H      20.09       1.11      20.23
H      20.26       1.90      18.68
H       1.61      22.69       0.75
H       3.24      23.39       0.77
H      11.99       8.17       7.22
H      11.94      10.55       7.06
H      15.90       8.35       8.81
H      15.86      10.73       8.65
H      17.41      13.69       8.25
H      19.32      15.02       8.72
H      14.95      17.12       8.59
H      16.88      18.44       9.06
H      11.80      16.81       8.68
H       9.63      17.78       8.89
H       7.87      14.00       8.24
H      10.03      13.02       8.03
H      14.89       6.22       8.60
H      13.68       6.05       7.35
H      19.54      18.53       8.68
H      20.37      17.08       9.19
H       7.11      17.17       9.57
H       6.41      15.88       8.60
H     -13.29      19.60      10.29
H     -11.09      19.35      11.17
H     -14.68      16.59      12.90
H     -12.49      16.35      13.80
H     -10.40      15.59      16.32
H      -9.95      14.18      18.18
H      -6.27      15.66      15.38
H      -5.83      14.25      17.25
H      -5.29      16.87      12.63
H      -3.54      17.37      11.09
H      -6.29      19.29       8.54
H      -8.05      18.80      10.06
H      18.67      17.54      11.38
H      19.00      19.18      10.86
H      -6.81      13.53      19.66
H      -8.48      12.99      19.60
H      -3.09      17.85       8.50
H      -3.99      19.22       7.86
H      17.79       0.19      18.85
H      16.75      -0.32      16.77
H      17.47       4.32      18.01
H      16.42       3.82      15.93
H      14.31       4.59      13.43
H      13.42       6.28      12.03
H      14.23       1.87      10.18
H      13.33       3.58       8.79
H      15.68      -0.93      10.42
H      16.34      -3.01       9.46
H      18.00      -4.21      13.15
H      17.35      -2.14      14.12
H      18.54       3.68      20.03
H      18.06       2.14      20.72
H      11.91       5.87       8.87
H      12.57       7.07       9.96
H       4.18      27.03       9.71
H       4.17      26.25      11.30
H      -0.35      18.97      10.31
H       1.76      19.53       9.36
H      -2.31      21.16       7.29
H      -0.21      21.74       6.32
H       1.62      23.84       6.49
H       1.55      25.83       7.80
H       3.29      23.79      11.04
H       3.37      21.78       9.76
H       5.22      21.64       7.67
H       7.08      20.14       7.78
H       4.51      16.87       7.09
H       2.64      18.35       6.98
H       1.22      19.73       5.01
H       4.03      22.87       5.47
H       4.34      22.91       3.11
H       1.55      19.80       2.65
H      -3.22      20.57       9.72
H       1.77      25.97      11.12
H       7.11      17.02       6.59
H       4.16      21.18       1.10
H      -0.97       7.35      15.18
H      -2.08       5.73      16.53
H      -3.17       6.05      11.82
H      -4.27       4.42      13.16
H      -5.80       1.45      13.54
H      -7.27      -0.17      12.61
H      -7.39       0.67      17.38
H      -8.85      -0.95      16.44
H      -6.67       2.57      19.81
H      -6.91       3.18      22.10
H      -4.05       6.24      21.61
H      -3.79       5.64      19.32
H      -1.68       7.87      11.53
H      -0.31       7.94      12.62
H      25.78      -2.62      14.34
H      25.95      -1.82      12.79
H      -6.66       5.27      23.76
H      -5.03       5.96      23.78
H      17.69       4.44       1.33
H      17.64       6.82       1.17
H      21.59       4.63       2.92
H      21.56       7.00       2.76
H      23.10       9.96       2.36
H      25.01      11.29       2.83
H      20.64      13.39       2.70
H      22.57      14.71       3.17
H      17.49      13.08       2.79
H      15.33      14.05       3.00
H      13.56      10.27       2.35
H      15.72       9.29       2.14
H      20.58       2.49       2.71
H      19.37       2.32       1.46
H      25.24      14.81       2.79
H      26.07      13.35       3.30
H      12.81      13.44       3.68
H      12.10      12.15       2.71
H      -7.59      15.87       4.40
H      -5.39      15.62       5.28
H      -8.99      12.87       7.02
H      -6.80      12.62       7.91
H      -4.70      11.86      10.43
H      -4.25      10.46      12.29
H      -0.58      11.93       9.49
H      -0.14      10.52      11.36
H       0.40      13.14       6.74
H       2.16      13.64       5.21
H      -0.60      15.57       2.66
H      -2.36      15.07       4.17
H      24.36      13.81       5.49
H      24.69      15.45       4.97
H      -1.12       9.80      13.77
H      -2.78       9.26      13.71
H       2.61      14.12       2.61
H       1.70      15.49       1.97
H      23.48      -3.53      12.96
H      22.44      -4.04      10.88
H      23.16       0.59      12.12
H      22.11       0.09      10.04
H      20.01       0.86       7.54
H      19.11       2.55       6.14
H      19.92      -1.85       4.29
H      19.02      -0.15       2.90
H       7.40      27.33       4.53
H       8.06      25.25       3.57
H       9.72      24.05       7.26
H       9.07      26.12       8.23
H      24.24      -0.05      14.14
H      23.75      -1.58      14.83
H      17.60       2.14       2.98
H      18.27       3.34       4.07
H       9.87      23.30       3.82
H       9.86      22.52       5.41
H       5.34      15.24       4.42
H       7.46      15.80       3.47
H       3.38      17.43       1.40
H       5.48      18.01       0.43
H       7.31      20.11       0.60
H       7.24      22.10       1.91
H       8.98      20.06       5.15
H       9.06      18.05       3.87
H      10.92      17.91       1.78
H      12.77      16.41       1.89
H      10.20      13.15       1.20
H       8.33      14.62       1.09
H      -7.05       2.30      28.02
H      -4.24       5.44      28.48
H      -3.93       5.49      26.12
H      -6.72       2.37      25.66
H       2.47      16.84       3.83
H       7.47      22.24       5.23
H      12.81      13.29       0.70
H      -4.11       3.75      24.11
H       4.72       3.62       9.29
H       3.61       2.00      10.64
H       2.53       2.32       5.93
H       1.42       0.69       7.27
H      -0.11      -2.28       7.65
H     -15.55      28.09       6.72
H      -1.70      -3.06      11.49
H      -3.16      -4.68      10.55
H      -0.98      -1.16      13.93
H      -1.22      -0.55      16.21
H       1.65       2.51      15.72
H       1.90       1.91      13.43
H       4.01       4.14       5.64
H       5.38       4.21       6.73
H      17.50      25.64       8.45
H      17.67      26.44       6.90
H      -0.96       1.54      17.87
H       0.66       2.24      17.89
H      -4.56      19.01      24.34
H       9.37     -10.60      24.18
H      -0.65      19.19      25.93
H      13.29     -10.42      25.77
H      14.83      -7.47      25.37
H      16.74      -6.14      25.84
H      12.37      -4.03      25.71
H      14.30      -2.71      26.18
H       9.22      -4.34      25.80
H       7.06      -3.37      26.01
H       5.29      -7.15      25.36
H       7.45      -8.13      25.15
H      -1.66      17.06      25.72
H      -2.88      16.88      24.47
H      16.96      -2.62      25.80
H      17.79      -4.07      26.31
H       4.54      -3.98      26.69
H       3.83      -5.28      25.72
H     -15.86      -1.56      27.41
H     -13.66      -1.80      28.29
H      -3.29       9.14       1.13
H      -1.10       8.89       2.02
H       0.99       8.13       4.54
H       1.44       6.73       6.40
H       5.12       8.20       3.61
H       5.56       6.79       5.48
H       6.10       9.42       0.85
H      -6.11      -3.78      28.22
H      -8.87      -1.86      25.66
H     -10.63      -2.35      27.18
H      16.09      -3.61      28.50
H      16.42      -1.97      27.98
H       4.58       6.07       7.88
H       2.91       5.53       7.82
H      -5.66      -3.31      25.62
H      -6.57      -1.93      24.98
H      15.20      24.73       7.07
H      14.16      24.22       4.99
H      14.88      28.85       6.23
H      13.83      28.35       4.16
H      11.72      29.12       1.65
H      10.83      30.81       0.25
H      -2.32      12.71      27.30
H      -3.22      14.42      25.91
H      -0.87       9.90      27.54
H      -0.21       7.83      26.58
H      15.41      20.32       1.37
H      14.76      22.39       2.34
H      29.93      -3.78       8.25
H      15.47      26.68       8.94
H      -4.64      16.71      25.99
H      -3.98      17.90      27.08
H       1.60       5.87      26.83
H       1.59       5.10      28.42
H      -2.93      -2.18      27.43
H      -0.81      -1.62      26.48
H      -4.89       0.01      24.41
H      -2.79       0.59      23.44
H      -0.96       2.68      23.61
H      -1.03       4.68      24.92
H       0.71       2.64      28.16
H       0.79       0.63      26.88
H       2.65       0.48      24.79
H       4.50      -1.01      24.90
H       1.93      -4.28      24.21
H       0.06      -2.80      24.10
H      -1.36      -1.43      22.13
H       1.46       1.71      22.59
H       1.77       1.76      20.23
H      -1.03      -1.36      19.77
H      -5.80      -0.59      26.84
H      -0.80       4.82      28.24
H       4.54      -4.13      23.71
H       1.58       0.03      18.22
H      10.42      -0.10       3.40
H       9.31      -1.72       4.75
H      -5.76      30.58       0.04
H      -6.86      28.95       1.38
H      -8.39      25.99       1.76
H      -9.86      24.37       0.83
H      -9.98      25.20       5.61
H     -11.44      23.58       4.66
H      -9.26      27.10       8.04
H       4.47      -4.27      10.32
H       7.34      -1.22       9.83
H       7.59      -1.82       7.54
H      -4.26     -13.28      28.65
H      11.08       0.48       0.84
H      23.20      21.91       2.56
H      23.36      22.71       1.01
H       4.73      -2.19      11.98
H       6.35      -1.49      12.00
H       1.13      15.28      18.45
H       1.08      17.66      18.29
H       5.04      15.46      20.04
H       5.00      17.84      19.88
H       6.55      20.80      19.48
H       8.46      22.12      19.95
H      18.07      -7.76      19.82
H      19.99      -6.44      20.29
H      14.92      -8.07      19.91
H      12.75      -7.10      20.12
H      -2.99      21.11      19.47
H      -0.83      20.13      19.26
H       4.03      13.33      19.84
H       2.82      13.16      18.58
H      22.66      -6.35      19.91
H      23.49      -7.80      20.42
H      10.23      -7.71      20.80
H       9.53      -9.00      19.83
H     -10.17      -5.28      21.52
H      -7.97      -5.53      22.40
H     -11.56      -8.29      24.14
H      -9.37      -8.53      25.03
H      -7.28      -9.29      27.55
H       7.14       3.00       0.51
H      -3.15      -9.22      26.62
H      -2.71     -10.63      28.48
H      -2.17      -8.01      23.86
H      -0.42      -7.51      22.33
H      -3.18      -5.59      19.78
H      -4.94      -6.08      21.30
H      21.79      -7.34      22.61
H      22.12      -5.70      22.09
H      10.27       2.35       1.99
H       8.61       1.81       1.93
H       0.03      -7.03      19.73
H      -0.87      -5.66      19.09
H      20.89      21.00       1.19
H       5.89       6.79      28.00
H      20.57      25.12       0.34
H       5.56      10.93      27.17
H       3.45      11.69      24.66
H       2.56      13.39      23.26
H       3.37       8.98      21.41
H       2.47      10.69      20.02
H       4.83       6.18      21.65
H       5.48       4.10      20.69
H       7.14       2.90      24.38
H       6.49       4.97      25.35
H      21.65      24.49       2.36
H      21.16      22.95       3.05
H       1.05      12.98      20.10
H       1.72      14.17      21.19
H       7.30       2.15      20.94
H       7.29       1.37      22.53
H       2.77      -5.91      21.54
H       4.88      -5.35      20.59
H       0.81      -3.72      18.52
H       2.91      -3.14      17.55
H       4.74      -1.04      17.72
H       4.67       0.95      19.03
H       6.41      -1.09      22.28
H       6.49      -3.10      20.99
H       8.34      -3.24      18.90
H      10.19      -4.74      19.01
H       7.62      -8.01      18.32
H       5.75      -6.53      18.21
H       4.34      -5.15      16.24
H       7.15      -2.01      16.70
H       7.46      -1.97      14.34
H       4.67      -5.08      13.88
H      -0.10      -4.31      20.95
H       4.89       1.09      22.35
H      10.23      -7.86      17.82
H       7.28      -3.70      12.33
N      -9.91       8.09      23.02
N     -11.43       6.36      23.30
N     -10.50       6.76      21.21
N      12.59      12.90       8.01
N      13.57      14.98       8.28
N      14.90      13.10       8.03
N      -9.19      17.84      12.15
N      -7.68      16.85      13.60
N      -9.94      16.87      14.13
N      16.35       0.22      14.25
N      15.37       0.86      12.25
N      15.36       2.31      14.06
N      -2.73      19.69       9.51
N       2.31      26.18      10.27
N       7.09      17.54       7.47
N       3.16      21.33       1.28
N      -4.22       4.36      17.13
N      -5.73       2.63      17.41
N      -4.81       3.03      15.32
N      18.28       9.17       2.12
N      19.26      11.25       2.39
N      20.60       9.37       2.14
N      -3.50      14.11       6.26
N      -1.98      13.12       7.71
N      -4.24      13.14       8.24
N      22.04      -3.51       8.36
N      21.06      -2.87       6.36
N      21.06      -1.41       8.17
N       2.96      15.96       3.62
N       8.00      22.45       4.38
N      12.78      13.82       1.58
N      -5.11       3.90      24.29
N       1.47       0.63      11.24
N      -0.04      -1.10      11.52
N       0.88      -0.69       9.43
N      10.01      -8.26      25.13
N      10.99      -6.17      25.40
N      12.33      -8.06      25.15
N       2.19      10.38       0.38
N       3.71       9.39       1.82
N       1.45       9.42       2.35
N      13.76      24.75       2.47
N      12.78      25.39       0.47
N      12.78      26.85       2.28
N      -5.31      -1.47      26.63
N      -0.27       5.02      27.39
N       4.51      -3.61      24.59
N       0.58       0.18      18.40
N      -6.81      28.89       5.35
N      -8.32      27.17       5.63
N      -7.40      27.57       3.54
N       1.73      20.01      19.24
N       2.71      22.09      19.51
N       4.04      20.20      19.26
N      -6.08      -7.04      23.38
N      -4.56      -8.03      24.83
N      -6.82      -8.01      25.36
N       5.49       7.33      25.48
N       4.51       7.97      23.48
N       4.51       9.42      25.29
N       0.38      -5.19      20.74
N       5.43       1.30      21.50
N      10.20      -7.34      18.70
N       6.28      -3.55      12.51
Si       2.46      21.18       7.13
Si       8.15      17.46       1.24
Si      -0.12       0.03      24.25
Si       5.57      -3.70      18.36
