24

H       5.18       0.81       8.89
C       5.24       0.30       6.93
N       5.76       1.03       8.05
N       3.68      -1.76       3.54
N       5.57      -1.85       8.10
N       3.86       1.06       3.52
O       3.66       3.04       5.82
O       5.75      -3.82       5.82
O       3.44      -3.82       5.82
H       6.74       0.72       8.23
O       5.97       3.04       5.82
H       2.83      -2.30       3.81
H       4.41      -2.42       3.20
H       5.00      -1.55       8.92
H       6.57      -1.63       8.30
H       2.87       0.81       3.30
H       4.46       0.75       2.71
C       4.81       2.43       5.80
C       4.18      -1.07       4.70
C       5.15      -1.10       6.95
C       4.26       0.32       4.68
C       4.62      -1.77       5.83
C       4.79       0.99       5.80
C       4.60      -3.21       5.83
