15

C       0.94      12.34      10.49
H       1.12      13.12       7.20
H       0.88      12.76      11.50
H       1.08       9.33       8.90
C       1.01      10.96      10.33
O       0.86      10.72      12.69
N       1.09      11.18       7.93
O       1.05       8.84      11.52
C       1.06      12.51       8.10
C       0.96      13.14       9.35
O       1.10      15.36       8.47
O       0.69      15.12      10.66
C       1.06      10.41       9.04
C       0.92      14.63       9.49
C       0.97      10.11      11.55
