19

S       9.02       9.57       6.04
H       6.75      11.23       5.24
H       8.74      14.61       3.45
H      11.05      11.34       5.04
C       8.91      11.15       5.20
C       7.67      11.73       4.94
C       7.60      12.98       4.30
C       6.28      13.61       4.00
C       8.79      13.64       3.95
C      10.03      13.06       4.22
C      11.29      13.82       3.89
C      10.09      11.80       4.84
O       7.79       9.53       6.90
O       9.02       8.52       5.01
O      10.26       9.65       6.84
O       5.22      12.93       4.23
O       6.25      14.79       3.53
O      11.21      14.95       3.33
O      12.40      13.24       4.21
