20

Nd       8.94       1.77       4.69
Nd       4.95       1.73       4.67
C       7.57       4.15       5.76
C      11.71      -0.17       5.53
C       6.92       3.09       2.22
C       6.33      -0.64       3.60
C      11.76       3.68       3.83
C       6.97       0.42       7.14
O       8.80       3.83       5.90
O       6.70       3.27       5.39
O      10.50       0.08       5.19
O       3.03       0.72       5.63
O       8.06       2.84       2.74
O       5.82       2.60       2.65
O       5.10      -0.33       3.46
O       7.20       0.24       3.97
O       3.39       3.43       4.17
O      10.86       2.78       3.73
O       5.83       0.66       6.62
O       8.07       0.90       6.71
