18

C      10.77       9.15       2.69
C      10.18      11.40       1.72
C       8.86      10.36       3.58
C      10.49       8.12       3.58
O       6.95      10.57       5.63
O       7.06       8.34       5.99
O      12.39       6.96       2.90
N      11.36       6.92       3.59
O       9.25      12.25       1.54
O      11.32      11.44       1.14
H       9.22       7.33       5.14
O      11.00       5.96       4.29
H      11.62       9.08       2.02
C       8.60       9.31       4.47
H       8.22      11.24       3.58
C       9.41       8.17       4.47
C       7.46       9.42       5.43
C       9.93      10.27       2.68
