18

C      17.19       8.74       8.91
C      15.81       7.77      10.76
C      14.15       9.99      10.77
H      15.41      10.80       9.21
C      14.74       7.84      11.66
C      13.88       8.95      11.65
H      13.03       9.01      12.33
C      14.51       6.71      12.61
N      13.26      11.18      10.77
O      17.72       7.60       8.70
O      17.57       9.83       8.36
H      16.46       6.90      10.75
O      12.23      11.12      11.46
O      15.46       5.88      12.80
O      13.37       6.64      13.18
O      13.61      12.16      10.09
C      16.05       8.83       9.87
C      15.22       9.96       9.88
