14

O      12.48      11.26      33.56
O      10.65      13.25      36.06
Cu      11.72      12.39      34.81
Cu       9.71      10.65      34.73
C      11.93      10.23      33.06
O      10.70       9.77      36.03
O       9.05      11.80      33.44
O      10.77       9.86      33.43
O       9.01      11.77      36.03
O      12.32      11.27      36.16
O      10.76      13.20      33.44
C       9.52      12.84      36.48
C      11.78      10.18      36.54
C       9.63      12.83      32.98
