14

O      12.54       1.48      12.05
O      11.20      -1.39      13.95
O      12.76      -0.96      11.72
O      11.02       1.33      14.01
O       9.19       1.12      12.78
O      10.84      -1.47      10.76
O       9.34      -1.36      12.77
O      10.84       1.26      10.67
C      11.92       1.84      11.00
C      10.03      -1.83      13.72
Cu      12.03       0.06      13.10
C      12.10      -1.61      10.85
C       9.81       1.65      13.75
Cu       9.90      -0.09      11.57
