14

Cu      -0.11      20.36      13.17
Cu      -0.11      22.36      11.42
O       1.11      19.62      11.98
O      -1.33      21.45      14.05
O      -1.48      19.71      12.10
O       1.28      21.32      13.94
O       1.22      23.02      12.53
O      -1.44      21.35      10.62
O      -1.36      23.09      12.56
O       1.15      21.31      10.55
C       1.54      20.16      10.91
C      -1.77      22.58      13.65
C      -1.91      20.24      11.03
C       1.71      22.46      13.56
