14

C      21.16       1.89      13.62
C      19.18      -1.72      10.89
C      21.36      -1.59      13.59
C      19.01       1.73      10.80
Cu      19.13       0.01      13.02
O      20.00       1.44      13.88
O      20.16      -1.28      13.87
O      18.37       1.07      11.68
O      18.59      -1.38      11.96
Cu      21.22       0.18      11.44
O      20.26      -1.14      10.54
O      21.82       1.44      12.64
O      21.96      -1.04      12.61
O      20.26       1.58      10.67
