14

O      20.20      13.16      33.54
O      18.51      11.22      36.17
O      20.20      13.16      36.16
O      18.50      11.22      33.54
O      20.19       9.80      33.48
O      21.82      11.66      36.21
O      20.08       9.68      36.06
O      21.91      11.76      33.62
Cu      19.18      12.34      34.85
Cu      21.17      10.58      34.85
C      21.35      12.80      33.15
C      18.98      10.11      36.55
C      21.30      12.74      36.64
C      19.06      10.19      33.05
