152

Mn       6.63       5.43       6.86
Mn       5.61       1.52      15.09
Mn       0.53       8.46       1.38
Mn      11.72      12.39       9.62
Mn       5.61       8.46       9.62
Mn       6.63      12.38       1.38
Mn      11.71       5.44      15.10
Mn       0.52       1.51       6.86
H       3.06       9.15       8.63
H       6.26       3.64       2.57
H       9.52       6.28       3.62
H       9.19      11.70       0.39
H       5.97       3.30      10.81
H       2.71       0.66      11.86
H       9.16       4.75      16.09
H       0.15      10.25       5.67
H       3.41       7.61       4.62
H       3.06       2.20       7.85
H      12.10      10.60      13.91
H       8.84      13.23      12.86
H       9.18       4.75       7.85
H       5.98      10.25      13.91
H       2.72       7.61      12.86
H       3.05       2.20      16.09
H       6.27      10.59       5.67
H       9.53      13.23       4.62
H       3.08       9.14       0.39
H      12.09       3.65      10.81
H       8.83       6.29      11.86
H       9.17      11.70       8.63
H       0.14       3.30       2.57
H       3.40       0.66       3.62
C       2.70       9.07       7.60
C       5.10       3.77       8.19
C       7.16       4.18       2.29
C       7.40       5.09       4.64
C       7.67       4.09       0.99
C       4.53       7.47       7.09
C       9.00       5.68       2.88
C       3.36       8.27       6.67
C       7.85       4.96       3.24
C       9.55      11.77      15.84
C       7.12       3.17      16.42
C       5.06       2.77      10.53
C       4.83       1.86      12.88
C       4.56       2.86       9.23
C       7.71      13.38      15.33
C       3.23       1.27      11.12
C       8.89      12.58      14.91
C       4.38       1.98      11.48
C       8.81       4.83       0.63
C      11.23      10.12       0.05
C       1.06       9.71       5.94
C       1.30       8.81       3.60
C       1.56       9.80       7.24
C      10.64       6.44       1.16
C       2.89       8.22       5.36
C       9.46       5.63       1.57
C       1.74       8.93       4.99
C       3.42       2.12       8.87
C       1.02      10.72       8.29
C      11.19      11.13      14.18
C      10.96      12.03      11.84
C      10.69      11.04      15.48
C       1.59       0.51       9.39
C       9.36      12.63      13.59
C       2.76       1.32       9.80
C      10.51      11.91      13.23
C       9.54       4.82       8.87
C       7.13      10.12       8.29
C       5.08       9.72      14.18
C       4.84       8.81      11.84
C       4.57       9.80      15.49
C       7.70       6.43       9.39
C       3.24       8.22      13.59
C       8.88       5.63       9.80
C       4.39       8.93      13.23
C       2.69       2.12       0.63
C       5.12      10.72       0.05
C       7.17      11.13       5.94
C       7.41      12.04       3.60
C       7.68      11.04       7.25
C       4.52       0.52       1.15
C       9.01      12.63       5.36
C       3.35       1.32       1.56
C       7.86      11.91       4.99
C       3.43       9.07      15.84
C       1.01       3.77      16.43
C      11.18       4.18      10.53
C      10.95       5.08      12.88
C      10.68       4.09       9.23
C       1.60       7.46      15.32
C       9.35       5.68      11.12
C       2.78       8.27      14.91
C      10.50       4.96      11.48
C       8.82      11.77       7.61
C      11.22       3.17       8.19
C       1.04       2.77       2.30
C       1.28       1.86       4.64
C       1.55       2.85       0.99
C      10.65      13.38       7.08
C       2.88       1.27       2.88
C       9.47      12.58       6.67
C       1.73       1.99       3.24
O       6.39       4.08       8.24
O       4.35       4.24       7.31
O       7.99       5.91       5.44
O       5.23       6.88       6.22
O       7.48       6.55       8.11
O       6.41       4.42       5.15
O       5.84       2.86       0.00
O       7.87       2.70      15.55
O       4.24       1.03      13.68
O       7.00       0.07      14.45
O       4.75       0.39      16.35
O       5.81       2.53      13.39
O       0.29       9.81      16.47
O      10.47       9.66       0.92
O       1.90       7.99       2.80
O      11.34       7.02       2.03
O       1.38       7.34       0.12
O       0.31       9.47       3.09
O      11.96      11.04       8.23
O       1.78      11.19       9.16
O      10.36      12.85      11.04
O       0.91      13.82      10.26
O      10.87      13.51       8.36
O      11.95      11.37      11.32
O       5.85       9.81       8.23
O       7.88       9.65       9.16
O       4.25       7.98      11.04
O       7.01       7.02      10.26
O       4.76       7.34       8.37
O       5.82       9.48      11.32
O       6.40      11.04      16.47
O       4.37      11.19       0.93
O       7.99      12.86       2.80
O       5.24      13.83       2.02
O       7.49      13.50       0.13
O       6.43      11.36       3.08
O      11.95       4.10       0.00
O       1.77       4.24      15.56
O      10.35       5.90      13.67
O       0.90       6.87      14.45
O      10.86       6.57      16.35
O      11.94       4.42      13.39
O       0.28       2.85       8.24
O      10.46       2.71       7.32
O       1.88       1.05       5.44
O      11.33       0.07       6.21
O       1.37       0.38       8.12
O       0.29       2.52       5.15
