36

N      -0.92      14.72      10.04
N      -5.76      17.03       7.39
Ni      -3.33      15.89      11.01
N      -2.16      17.34      10.99
Ni      -3.35      15.86       6.42
N      -4.51      14.45      10.99
Ni      -1.07      16.05       8.71
Ni      -5.61      15.70       8.71
N      -2.17      17.30       6.43
N      -4.52      14.41       6.43
C      -5.34      17.44       5.25
C      -1.33      14.24      12.16
C      -1.75      13.49       5.72
C      -4.94      18.29      11.69
C      -0.49      18.51       7.09
C      -6.20      13.25      10.33
C      -6.54      13.70       6.79
C      -0.21      18.20      10.54
C      -6.52      18.14      10.12
C      -0.14      13.64       7.27
C       0.24      14.39      10.60
C      -6.93      17.30       6.79
C      -1.83      18.07      12.04
C      -4.91      13.86       5.31
C      -4.46      13.34      11.71
C      -2.24      18.41       5.73
N      -4.78      17.10       6.40
N      -1.91      14.65      11.03
N      -1.92      14.62       6.40
N      -4.76      17.14      11.03
N      -1.18      17.38       7.35
N      -5.50      14.37      10.07
N      -5.51      14.34       7.35
N      -1.17      17.41      10.07
N      -5.76      17.05      10.04
N      -0.93      14.70       7.39
