28

H       4.67       7.53       2.19
H       7.12       7.68       1.73
H       6.81       9.09       0.70
H       6.29       7.65      -1.25
H       6.61       6.21      -0.30
H       8.99       7.05       0.15
H       8.66       8.43      -0.90
H       8.13       6.86      -2.80
H       8.47       5.51      -1.75
H      10.86       6.34      -1.42
H      10.51       7.67      -2.51
H      10.09       6.04      -4.39
H      10.34       4.71      -3.28
H      12.71       5.58      -2.80
H      12.47       6.81      -4.02
H      12.18       3.80      -4.55
H      12.15       5.04      -5.78
C       5.06       8.00       1.26
C       6.51       8.04       0.88
C       6.88       7.27      -0.40
C       8.37       7.38      -0.71
C       8.76       6.55      -1.94
C      10.25       6.63      -2.30
C      10.66       5.75      -3.49
C      12.17       5.79      -3.74
C      12.60       4.79      -4.81
N       4.09       8.67       0.46
N      14.09       4.68      -4.97
