568

H       0.71       8.96      15.32
H       0.75       8.02      17.51
H       0.78       6.71      19.60
H       0.80       5.11      21.39
H       0.38       1.96      18.61
H       0.32       5.10      13.64
H      29.98       3.88      16.63
H      29.19       0.17      14.76
H      31.54      47.44      14.30
H       3.28       3.83      16.56
H       1.59      47.41      14.28
H       3.95       0.09      14.69
H       0.70      39.76      33.35
H       0.72      40.76      31.17
H       0.64      42.12      29.11
H       0.53      43.76      27.36
H       0.26      46.84      30.24
H       0.34      43.58      35.12
H      29.97      44.86      32.18
H      29.19       1.00      34.12
H      31.54       1.27      34.58
H       3.26      44.92      32.21
H       1.59       1.29      34.59
H       3.95       1.07      34.15
H      16.93      33.42       8.98
H      16.96      31.23       8.03
H      17.00      29.14       6.72
H      17.01      27.35       5.13
H      16.60      30.13       1.97
H      16.55      35.10       5.12
H      13.77      32.12       3.90
H      12.99      33.98       0.19
H      15.34      34.44      47.45
H      19.50      32.19       3.84
H      17.82      34.46      47.42
H      20.18      34.05       0.11
H      16.92      15.39      39.77
H      16.93      17.57      40.77
H      16.85      19.63      42.14
H      16.74      21.38      43.78
H      16.47      18.50      46.85
H      16.55      13.62      43.59
H      13.75      16.57      44.88
H      12.97      14.64       1.02
H      15.32      14.17       1.28
H      19.48      16.53      44.94
H      17.80      14.15       1.31
H      20.16      14.59       1.09
H      16.30      39.92      15.23
H      16.32      40.85      17.42
H      16.33      42.15      19.50
H      16.31      43.73      21.31
H      16.64      46.91      18.54
H      16.65      43.79      13.56
H      19.51      45.14      16.61
H      20.16       1.15      14.41
H      17.83       1.29      13.91
H      13.72      45.15      16.57
H      15.45       1.30      13.91
H      13.11       1.17      14.37
H      16.32       8.80      33.46
H      16.35       7.82      31.28
H      16.48       6.47      29.22
H      16.58       4.84      27.46
H      16.75       1.74      30.31
H      16.64       4.96      35.21
H      19.52       3.55      32.21
H      20.16       0.05      34.49
H      17.83      47.46      34.98
H      13.73       3.53      32.21
H      15.44      47.45      34.97
H      13.11       0.02      34.49
H       0.07      15.21       8.82
H       0.09      17.41       7.88
H       0.11      19.49       6.59
H       0.09      21.29       5.01
H       0.41      18.53       1.83
H       0.42      13.55       4.95
H       3.29      16.58       3.61
H       3.93      14.38       0.05
H       1.60      13.90      47.44
H      29.92      16.55       3.59
H      31.65      13.90      47.43
H      29.31      14.36       0.03
H       0.10      33.44      39.94
H       0.13      31.27      40.92
H       0.26      29.20      42.27
H       0.37      27.44      43.89
H       0.54      30.30      47.00
H       0.43      35.19      43.77
H       3.31      32.19      45.19
H       3.95      34.48       1.15
H       1.62      34.97       1.27
H      29.95      32.20      45.21
H      31.67      34.98       1.28
H      29.33      34.49       1.17
H       2.76       0.25      24.96
H      30.02       2.30      23.15
H      31.85       1.05      21.03
H       1.82      45.90      26.48
H      18.97      23.78       0.27
H      13.80      25.59       2.31
H      15.64      27.71       1.06
H      18.04      22.26      45.91
H      14.29       0.88      25.00
H      19.47      46.51      23.06
H      17.58       0.29      20.99
H      15.24       2.76      26.55
H      30.51      24.99       0.31
H       3.25      23.02       2.22
H       1.35      20.98       0.90
H      31.46      26.54      45.97
H      24.44       0.49      13.60
H      25.65       2.19      19.04
H      27.90       0.70      17.38
H      22.18      47.25      14.09
H      24.44       0.68      35.25
H      25.65      46.55      29.80
H      27.91       0.50      31.48
H      22.19       1.48      34.77
H       8.24      35.19       0.55
H       9.42      29.73       2.19
H      11.67      31.36       0.73
H       5.99      34.73      47.27
H       8.19      13.54       0.73
H       9.44      18.95      46.56
H      11.69      17.31       0.50
H       5.94      14.05       1.51
H       8.82       0.70      35.28
H       7.52      46.60      29.86
H       5.31       0.59      31.53
H      11.08       1.46      34.78
H       8.82       0.47      13.52
H       7.54       2.14      18.94
H       5.31       0.63      17.29
H      11.08      47.27      14.03
H      25.02      13.49       0.75
H      23.73      18.91      46.61
H      21.50      17.20       0.63
H      27.29      14.01       1.47
H      25.03      35.25       0.51
H      23.77      29.80       2.15
H      21.55      31.48       0.62
H      27.30      34.76      47.29
H      31.31       8.58       9.54
H       1.46      12.94      12.29
H       1.37      13.25       9.16
H      32.14       7.05      11.49
H      31.32      40.11      39.16
H       1.45      35.73      36.40
H       1.36      35.41      39.55
H      32.15      41.63      37.21
H      15.11      39.20       8.59
H      17.67      36.45      12.96
H      17.60      39.58      13.27
H      15.94      37.25       7.06
H      15.10       9.58      40.12
H      17.68      12.40      35.80
H      17.56       9.19      35.42
H      15.93      11.53      41.64
C       1.54       2.88      15.79
C       1.07       1.73      15.15
C      32.11       1.75      15.16
C      31.68       2.91      15.82
C      30.30       3.07      16.10
C      29.38       2.05      15.73
C      29.84       0.91      15.03
C      31.21       0.75      14.75
C       1.94       0.72      14.72
C       3.32       0.85      14.97
C       3.82       1.98      15.66
C       2.93       3.02      16.03
C       0.44       5.15      15.76
C       0.55       6.01      16.87
C       0.56       5.27      18.05
C       0.45       3.91      17.76
C       0.69       5.71      19.38
C       0.70       4.77      20.43
C       0.56       3.38      20.18
C       0.44       2.96      18.82
C       0.40       5.72      14.45
C       0.50       7.14      14.26
C       0.63       7.95      15.41
C       0.65       7.40      16.70
C       0.41       3.73      16.27
C       1.54      45.85      33.01
C       1.07      46.99      33.68
C      32.11      46.97      33.68
C      31.67      45.82      33.00
C      30.29      45.66      32.73
C      29.37      46.67      33.12
C      29.84       0.26      33.83
C      31.21       0.42      34.11
C       1.94       0.45      34.12
C       3.32       0.32      33.86
C       3.82      46.75      33.15
C       2.92      45.72      32.75
C       0.44      43.58      32.99
C       0.54      42.75      31.87
C       0.52      43.52      30.70
C       0.42      44.87      31.03
C       0.58      43.11      29.35
C       0.52      44.08      28.33
C       0.42      45.47      28.62
C       0.35      45.85      30.00
C       0.41      42.98      34.29
C       0.51      41.56      34.45
C       0.63      40.78      33.28
C       0.64      41.36      32.00
C       0.40      45.02      32.53
C      17.77      32.95       2.90
C      17.30      33.59       1.75
C      15.91      33.58       1.76
C      15.47      32.92       2.92
C      14.09      32.65       3.08
C      13.17      33.01       2.07
C      13.64      33.71       0.93
C      15.01      33.99       0.76
C      18.17      34.02       0.73
C      19.55      33.76       0.86
C      20.05      33.08       2.00
C      19.16      32.71       3.03
C      16.67      32.98       5.16
C      16.77      31.87       6.02
C      16.78      30.69       5.28
C      16.68      30.98       3.92
C      16.90      29.36       5.73
C      16.91      28.31       4.78
C      16.78      28.56       3.40
C      16.67      29.92       2.97
C      16.63      34.29       5.73
C      16.72      34.48       7.15
C      16.85      33.33       7.96
C      16.87      32.03       7.41
C      16.63      32.47       3.74
C      17.75      15.73      45.87
C      17.28      15.05      47.00
C      15.89      15.06      46.98
C      15.45      15.73      45.83
C      14.07      16.02      45.68
C      13.15      15.64      46.70
C      13.62      14.92       0.28
C      14.99      14.63       0.43
C      18.16      14.61       0.47
C      19.53      14.89       0.34
C      20.03      15.60      46.77
C      19.13      15.99      45.74
C      16.65      15.75      43.60
C      16.75      16.87      42.77
C      16.74      18.04      43.53
C      16.63      17.70      44.89
C      16.79      19.39      43.13
C      16.74      20.41      44.10
C      16.64      20.11      45.48
C      16.57      18.74      45.86
C      16.63      14.45      43.00
C      16.72      14.29      41.58
C      16.85      15.46      40.79
C      16.85      16.74      41.37
C      16.61      16.21      45.03
C      15.46      45.97      15.69
C      15.94      47.05      14.92
C      17.32      47.04      14.93
C      17.78      45.96      15.70
C      19.17      45.88      15.99
C      20.07      46.86      15.49
C      19.55       0.39      14.72
C      18.19       0.48      14.43
C      15.08       0.49      14.41
C      13.71       0.41      14.69
C      13.18      46.88      15.45
C      14.07      45.90      15.96
C      16.59      43.73      15.68
C      16.51      42.87      16.78
C      16.50      43.60      17.97
C      16.59      44.97      17.68
C      16.40      43.15      19.30
C      16.39      44.08      20.35
C      16.50      45.47      20.11
C      16.59      45.91      18.75
C      16.60      43.16      14.37
C      16.54      41.75      14.16
C      16.41      40.94      15.32
C      16.41      41.48      16.61
C      16.62      45.15      16.19
C      15.47       2.73      33.13
C      15.94       1.68      33.92
C      17.32       1.69      33.92
C      17.78       2.75      33.13
C      19.17       2.83      32.84
C      20.07       1.86      33.37
C      19.55       0.80      34.16
C      18.18       0.72      34.45
C      15.08       0.70      34.45
C      13.71       0.78      34.16
C      13.18       1.83      33.37
C      14.08       2.80      32.84
C      16.59       4.98      33.08
C      16.52       5.82      31.96
C      16.54       5.05      30.79
C      16.61       3.69      31.12
C      16.51       5.47      29.45
C      16.57       4.51      28.43
C      16.63       3.12      28.71
C      16.67       2.73      30.08
C      16.59       5.57      34.39
C      16.54       6.99      34.57
C      16.42       7.78      33.39
C      16.43       7.21      32.10
C      16.62       3.54      32.62
C      31.67      15.68       2.76
C      32.14      14.92       1.69
C       1.09      14.92       1.69
C       1.55      15.69       2.77
C       2.94      15.97       2.86
C       3.84      15.47       1.88
C       3.32      14.70       0.81
C       1.96      14.42       0.71
C      31.29      14.40       0.70
C      29.92      14.68       0.79
C      29.38      15.44       1.86
C      30.28      15.95       2.85
C       0.36      15.67       5.01
C       0.28      16.77       5.87
C       0.28      17.96       5.14
C       0.36      17.66       3.77
C       0.19      19.28       5.59
C       0.17      20.33       4.66
C       0.27      20.09       3.27
C       0.37      18.74       2.83
C       0.37      14.36       5.57
C       0.31      14.14       6.99
C       0.18      15.30       7.80
C       0.18      16.60       7.26
C       0.39      16.17       3.58
C      31.69      33.11      46.01
C      32.16      33.91      47.06
C       1.11      33.91      47.05
C       1.58      33.12      45.99
C       2.96      32.82      45.91
C       3.87      33.35      46.88
C       3.34      34.15       0.39
C       1.98      34.45       0.47
C      31.31      34.44       0.49
C      29.94      34.15       0.41
C      29.41      33.36      46.91
C      30.30      32.83      45.94
C       0.38      33.07      43.76
C       0.31      31.95      42.92
C       0.33      30.78      43.69
C       0.40      31.11      45.05
C       0.30      29.44      43.26
C       0.36      28.41      44.22
C       0.42      28.69      45.61
C       0.47      30.06      46.01
C       0.38      34.37      43.17
C       0.33      34.55      41.75
C       0.21      33.38      40.96
C       0.22      32.09      41.53
C       0.41      32.60      45.19
C       0.23       0.97      22.93
C       1.78       0.31      24.66
C       0.74      47.29      25.45
C      31.61       0.42      23.72
C      30.28       0.43      23.32
C       0.06       1.49      21.64
C       1.02      46.48      26.55
C      16.45      25.81       0.98
C      18.00      24.08       0.33
C      16.96      23.29      47.31
C      15.40      25.02       0.43
C      14.07      25.42       0.45
C      16.28      27.10       1.51
C      17.24      22.18      46.50
C      16.80       0.27      22.92
C      15.27       0.84      24.69
C      16.30       1.39      25.48
C      17.85       0.81      23.71
C      19.18       0.82      23.29
C      16.96      47.35      21.60
C      16.03       2.16      26.62
C       0.58      22.90       0.92
C      31.48      24.68       0.35
C       0.09      25.47      47.35
C       1.63      23.70       0.39
C       2.96      23.27       0.37
C       0.73      21.59       1.39
C      32.25      26.60      46.57
C      26.13       0.89      16.41
C      24.61       0.44      14.61
C      23.64      47.49      15.51
C      25.16       0.39      17.32
C      25.36       0.35      18.70
C      27.40       1.31      16.78
C      22.36      47.15      15.07
C      26.13       0.29      32.44
C      24.61       0.74      34.24
C      23.64       1.23      33.34
C      25.16       0.80      31.53
C      25.36       0.84      30.15
C      27.40      47.42      32.06
C      22.37       1.57      33.79
C       9.91      32.37       0.92
C       8.41      34.18       0.48
C       7.43      33.30      47.52
C       8.94      31.47       0.40
C       9.13      30.09       0.35
C      11.18      31.99       1.33
C       6.16      33.75      47.18
C       9.91      16.33       0.33
C       8.38      14.55       0.78
C       7.41      15.45       1.27
C       8.95      17.25       0.83
C       9.16      18.63       0.86
C      11.19      16.69      47.45
C       6.13      15.02       1.61
C       7.09       0.36      32.49
C       8.63       0.76      34.28
C       9.61       1.24      33.37
C       8.06       0.84      31.57
C       7.84       0.89      30.20
C       5.80      47.52      32.13
C      10.89       1.55      33.81
C       7.09       0.83      16.31
C       8.64       0.41      14.53
C       9.61      47.48      15.43
C       8.06       0.35      17.24
C       7.85       0.31      18.61
C       5.81       1.23      16.67
C      10.89      47.16      15.00
C      23.29      16.27       0.39
C      24.84      14.49       0.81
C      25.81      15.40       1.28
C      24.25      17.20       0.87
C      24.04      18.57       0.90
C      22.00      16.63      47.54
C      27.10      14.98       1.58
C      23.32      32.44       0.86
C      24.86      34.24       0.45
C      25.84      33.34      47.51
C      24.30      31.53       0.37
C      24.10      30.15       0.32
C      22.04      32.07       1.25
C      27.12      33.79      47.20
C       0.74      11.33       9.43
C      32.03       9.23       9.85
C       0.35       8.98      11.03
C       1.51      11.06      10.60
C       2.49      11.91      11.09
C       0.84      12.55       8.71
C       0.17       7.85      11.85
C       0.73      37.34      39.27
C      32.04      39.45      38.85
C       0.35      39.69      37.67
C       1.50      37.60      38.09
C       2.48      36.75      37.61
C       0.83      36.13      40.00
C       0.18      40.83      36.84
C      16.96      39.31      11.34
C      15.83      38.89       9.24
C      16.57      37.71       8.99
C      17.73      38.13      11.08
C      18.70      37.64      11.93
C      17.06      40.03      12.56
C      16.40      36.88       7.86
C      16.95       9.47      37.36
C      15.82       9.89      39.46
C      16.57      11.07      39.71
C      17.71      10.65      37.61
C      18.69      11.13      36.76
C      17.04       8.74      36.14
C      16.39      11.90      40.84
N       0.61       2.60      21.27
N       5.12       2.06      15.94
N      28.09       2.15      16.05
N       0.49       7.85      13.11
N       0.27      46.35      27.61
N       5.11      46.67      32.85
N      28.08      46.58      32.80
N       0.51      40.83      35.59
N      16.82      27.47       2.62
N      21.35      32.80       2.08
N      11.88      32.70       2.17
N      16.72      35.63       7.86
N      16.49      21.13      46.36
N      21.32      15.90      46.70
N      11.86      15.96      46.61
N      16.72      13.15      40.84
N      16.45      46.23      21.22
N      11.89      46.94      15.80
N      21.36      46.93      15.85
N      16.51      41.16      12.92
N      16.77       2.26      27.67
N      11.89       1.77      33.01
N      21.36       1.78      33.00
N      16.51       7.60      35.79
N       0.24      21.20       2.51
N      28.09      15.78       1.81
N       5.14      15.82       1.82
N       0.29      12.91       7.58
N       0.56      27.66      46.48
N      28.12      33.00      46.98
N       5.15      32.98      46.96
N       0.30      35.78      41.13
N       1.49       0.88      23.46
N      31.92      47.37      24.92
N      17.71      25.28       0.90
N      15.71      23.82      47.38
N      15.55       0.32      23.46
N      17.55       1.35      24.94
N      31.76      23.45       0.87
N       1.33      24.92      47.39
N      25.80       0.88      15.09
N      23.97      47.50      16.83
N      25.80       0.30      33.76
N      23.96       1.22      32.02
N       9.59      33.69       0.92
N       7.75      31.97      47.52
N       9.57      15.01       0.34
N       7.75      16.77       1.26
N       7.43       0.35      33.81
N       9.27       1.24      32.06
N       7.43       0.83      15.00
N       9.27      47.48      16.75
N      23.63      14.96       0.39
N      25.47      16.72       1.27
N      23.66      33.76       0.86
N      25.51      32.02      47.51
N      32.24      10.37       9.12
N       1.27       9.93      11.33
N      32.25      38.30      39.58
N       1.27      38.73      37.36
N      16.04      39.62      10.39
N      17.49      37.40       9.95
N      16.02       9.16      38.32
N      17.48      11.38      38.75
O      29.60      46.99      23.54
O      29.65       1.49      23.20
O      13.38      25.20      47.00
O      13.44      25.54       1.50
O      19.85       1.81      23.55
O      19.82      47.32      23.13
O       3.64      23.54      46.94
O       3.60      23.10       1.42
O      24.94      46.93      19.32
O      25.48       1.39      19.37
O      24.93       1.81      29.53
O      25.48      47.35      29.48
O       8.70      29.48      46.93
O       9.24      29.41       1.38
O       8.75      19.25       1.83
O       9.28      19.29      47.37
O       8.27       1.86      29.58
O       7.71      47.40      29.53
O       8.28      46.89      19.23
O       7.72       1.34      19.27
O      24.48      19.19       1.86
O      23.91      19.24      47.41
O      24.54      29.54      46.91
O      23.96      29.48       1.35
O       3.64      11.52      11.01
O       2.26      12.64      12.06
O       3.63      37.13      37.69
O       2.25      36.02      36.63
O      19.86      37.72      11.54
O      18.47      36.67      12.66
O      19.84      10.99      37.13
O      18.48      12.14      36.08
