22

O       6.88       5.62       1.44
O       9.61       6.02       1.26
O      10.91       7.83       1.43
O       9.20      10.03       1.52
Cr       8.22       5.99      -0.10
O       8.22       7.98       0.02
Cr       9.93       8.98       0.02
Cr       6.51       8.98       0.14
C       5.99       6.71      -1.94
C      10.47       6.86      -2.05
C       8.07      10.73      -1.75
C       6.68       6.75       2.07
C      10.49       6.72       1.86
C       8.18      10.48       2.11
O       6.91      10.42      -1.30
O       5.89       7.82      -1.32
O       6.79       5.78      -1.58
O       9.53       6.17      -1.55
O      10.82       8.00      -1.59
O       9.12      10.18      -1.28
O       7.00      10.25       1.72
O       5.96       7.67       1.49
