22

Cr       4.46       3.89       9.42
Cr       1.03       3.94       9.40
Cr       2.79       6.91       9.31
O       1.45       2.64      10.96
O       0.45       5.24      10.76
O       1.39       7.28      10.81
O       4.12       6.84      10.72
O       5.43       4.88       7.87
O       3.69       2.72       8.05
O       1.48       2.52       7.93
C       2.59       2.49      11.47
C       1.06       6.18      11.42
C       5.02       6.15      11.32
C       2.64       2.22       7.54
C       0.60       6.28       7.38
C       5.12       6.03       7.44
O       5.39       5.01      10.90
O       0.48       5.13       7.95
O       1.43       7.16       7.78
O       4.15       6.73       7.92
O       2.76       4.91       9.37
O       3.66       2.83      10.85
