18

O      14.61      11.61       5.66
N      20.19       9.20       5.28
O      15.24       8.49       1.79
O      17.27       7.62       1.40
O      20.55       9.68       6.37
O      16.12      11.61       7.27
O      20.92       8.55       4.51
H      15.10       9.91       3.81
H      18.33      10.60       6.61
H      19.00       8.22       3.09
C      16.45       8.33       2.09
C      15.73      11.20       6.12
C      16.99       8.99       3.32
C      16.13       9.76       4.12
C      16.62      10.34       5.30
C      17.95      10.16       5.69
C      18.78       9.40       4.88
C      18.33       8.81       3.70
