18

C       8.17       9.58      12.42
C       8.89       6.71       8.39
C       7.63       8.92      11.19
C       8.49       8.15      10.39
C       8.00       7.57       9.21
C       6.67       7.76       8.82
C       5.84       8.52       9.63
H       9.52       8.00      10.70
H       6.29       7.31       7.90
H       5.62       9.70      11.42
C       6.29       9.10      10.81
N       4.43       8.72       9.23
O      10.01       6.30       8.85
O       7.34      10.29      13.11
O       9.38       9.42      12.72
O       4.07       8.23       8.14
O       8.50       6.30       7.24
O       3.70       9.36      10.00
