13

C      10.74      10.87       0.47
C       8.03      15.34      -0.37
O       8.08      15.42      -1.63
C       9.92      12.11       0.66
O      11.07      10.60      -0.70
S       9.60      13.10      -0.69
C       9.29      12.58       1.77
O      11.02      10.20       1.50
O       7.42      16.22       0.30
H       9.33      12.15       2.60
H       8.14      14.24       2.23
C       8.60      13.78       1.56
C       8.66      14.19       0.28
