13

S       8.80       1.29      11.54
H       7.69       1.30      14.79
C       8.10       1.13      13.97
C       8.88      -0.00      13.73
C       8.00       1.94      12.89
C       7.30       3.26      12.78
C       9.36      -0.04      12.45
C      10.28      -1.03      11.84
H       9.05      -0.66      14.37
O       7.04       3.66      11.63
O       7.04       3.86      13.86
O      10.56      -0.92      10.63
O      10.78      -1.93      12.56
