13

O      11.80       4.50      20.84
C      12.84       3.98      20.36
O      15.78       6.15      15.32
H      13.36       6.31      16.47
O      16.99       4.62      16.36
S      14.94       4.06      18.54
C      13.39       4.52      19.08
C      12.80       5.40      18.25
C      13.61       5.72      17.15
C      14.80       5.09      17.17
H      11.95       5.75      18.39
C      15.91       5.28      16.23
O      13.42       3.03      20.93
