13

C      10.90      -1.24       6.58
C      11.49      -0.36       5.75
C      10.68      -0.04       4.65
C       9.49      -0.67       4.67
C      11.45      -1.78       7.86
C       8.38      -0.47       3.73
H      12.34      -0.01       5.89
S       9.35      -1.70       6.04
H      10.93       0.55       3.97
O      10.87      -2.73       8.43
O      12.49      -1.25       8.34
O       8.51       0.39       2.82
O       7.30      -1.14       3.86
