13

O       1.08       6.41       0.70
O       1.13       6.81      -1.50
O       4.72       0.79      -0.30
O       4.07       1.59       1.63
S       2.55       3.90       0.69
H       2.82       4.86      -2.60
H       4.00       2.77      -2.23
C       2.23       4.89      -0.66
C       2.85       4.42      -1.77
C       3.55       3.23      -1.56
C       3.48       2.82      -0.28
C       1.41       6.14      -0.47
C       4.12       1.67       0.37
