436

Cd      10.73      15.21      15.81
Cd      13.02      15.90      21.29
Cd       7.79      12.80       9.65
Cd      16.19      15.61       5.03
Cd      13.90      14.95      10.50
Cd       5.38      18.05      20.42
Cd       7.23       5.35       5.74
Cd       4.91       4.70       0.26
Cd      10.16       7.76      11.89
Cd       1.76       4.93      16.51
Cd       4.08       5.58      11.03
Cd      12.58       2.50       1.12
H       8.26      15.92      17.65
H       6.03      17.03      17.66
H       6.60      17.85      13.44
H       8.79      16.66      13.61
H       4.71      18.83      14.56
H       1.16       2.61      18.71
H       0.80       0.14      18.79
H      13.58       0.31      14.58
H      14.10       2.74      14.64
H       4.67      18.65      17.64
H      15.31      18.20      20.98
H      16.71      19.19      19.15
H      14.59      16.63      16.38
H      13.22      15.85      18.30
H      16.06      19.15      15.80
H      13.63      16.98      12.69
H      14.79      18.04      14.62
H       4.44      15.56      13.71
H       3.15      14.70      11.73
H       3.73      16.49      16.26
H      12.23      13.39      18.00
H      14.43      12.33      18.46
H      15.71      13.64      14.54
H      13.43      14.59      14.22
H       2.85      11.82      17.77
H       2.03       7.19      14.12
H       2.51       9.61      13.80
H       3.72       9.77      17.95
H       3.09       7.35      18.12
H       3.07      11.70      14.71
H       7.72      14.45      13.12
H       6.46      14.19      15.28
H       5.08      10.37      13.80
H       6.34      10.84      11.69
H       5.39      11.42      16.69
H       7.53      14.19      19.76
H       6.75      13.27      17.58
H      16.52      14.41      18.70
H       3.67      15.25      20.85
H       3.94      14.01      15.93
H       4.85      14.87       6.87
H       7.08      13.75       6.89
H       6.54      13.00       2.65
H       4.34      14.19       2.82
H       8.41      11.98       3.78
H       7.78       7.68       7.95
H       8.14      10.15       8.02
H       9.15       9.96       3.82
H       8.65       7.52       3.89
H       8.45      12.18       6.86
H      11.62      12.62      10.19
H      10.22      11.63       8.37
H      12.30      14.20       5.59
H      13.69      14.98       7.50
H      10.84      11.67       5.03
H      13.28      13.86       1.91
H      12.11      12.78       3.83
H       8.68      15.26       2.93
H       9.97      16.15       0.97
H       9.39      14.33       5.48
H      14.70      17.45       7.21
H      12.51      18.52       7.67
H      11.21      17.17       3.78
H      13.49      16.23       3.44
H      10.30      19.01       7.00
H       6.99       3.09       3.35
H       6.49       0.67       3.04
H       5.23       0.53       7.17
H       5.88       2.94       7.34
H      10.08      19.13       3.95
H       5.48      16.35       2.32
H       6.72      16.62       4.49
H       8.05      20.47       3.05
H       6.81      20.01       0.93
H       7.75      19.41       5.92
H       5.61      16.62       8.98
H       6.40      17.53       6.79
H      10.42      16.46       7.97
H       9.47      15.63      10.12
H       9.21      16.82       5.17
H       9.70       4.62       3.89
H      11.92       3.50       3.87
H      11.36       2.70       8.10
H       9.16       3.90       7.93
H      13.24       1.71       6.97
H      16.78      17.93       2.82
H      17.14      20.40       2.74
H       4.37      20.23       6.94
H       3.85      17.79       6.88
H      13.28       1.90       3.89
H       2.66       2.37       0.56
H       1.25       1.37       2.37
H       3.34       3.92       5.16
H       4.72       4.72       3.26
H       1.89       1.39       5.72
H       4.33       3.54       8.85
H       3.16       2.49       6.92
H      13.52       4.98       7.84
H      14.81       5.83       9.82
H      14.23       4.05       5.28
H       5.73       7.18       3.58
H       3.54       8.23       3.10
H       2.23       6.88       7.00
H       4.51       5.96       7.34
H      15.10       8.71       3.76
H      15.93      13.36       7.40
H      15.45      10.94       7.72
H      14.21      10.77       3.58
H      14.85      13.19       3.40
H      14.88       8.85       6.82
H      10.25       6.10       8.44
H      11.50       6.35       6.28
H      12.86      10.19       7.72
H      11.61       9.73       9.83
H      12.56       9.12       4.84
H      10.41       6.37       1.78
H      11.20       7.28       3.97
H       1.42       6.12       2.83
H      14.26       5.29       0.68
H      14.01       6.53       5.61
H      13.09       5.68      14.65
H      10.87       6.80      14.64
H      11.42       7.55      18.87
H      13.62       6.36      18.70
H       9.55       8.57      17.75
H      10.19      12.88      13.60
H       9.83      10.41      13.53
H       8.80      10.59      17.72
H       9.31      13.03      17.65
H       9.51       8.38      14.67
H       6.33       7.94      11.34
H       7.73       8.94      13.16
H       5.68       6.33      15.93
H       4.30       5.54      14.03
H       7.11       8.90      16.50
H       4.65       6.72      19.61
H       5.83       7.78      17.68
H       9.27       5.34      18.65
H       7.97       4.48      20.62
H       8.55       6.23      16.07
H       3.25       3.08      14.34
H       5.46       2.06      13.86
H       6.77       3.40      17.75
H       4.48       4.31      18.11
H       7.67       1.57      14.52
H      10.97      17.48      18.17
H      11.47      19.90      18.48
H      12.72      20.04      14.35
H      12.07      17.62      14.18
H       7.88       1.43      17.58
H      12.49       4.20      19.23
H      11.25       3.94      17.06
H       9.89       0.10      18.50
H      11.13       0.56      20.62
H      10.22       1.15      15.62
H      12.39       3.89      12.56
H      11.58       3.00      14.75
H       7.58       4.13      13.56
H       8.54       4.93      11.41
H       8.77       3.75      16.36
C       7.83      16.35      16.74
C       6.59      16.98      16.73
C       6.12      17.55      15.54
C       6.92      17.44      14.40
C       8.15      16.78      14.48
C       4.78      18.23      15.48
C       0.88       2.06      17.81
C       0.65       0.69      17.85
C       4.45      20.55      16.69
C      13.88       0.77      15.52
C      14.16       2.13      15.55
C       4.26      19.06      16.70
C      15.16      17.93      19.93
C      15.94      18.46      18.91
C      15.77      18.01      17.60
C      14.77      17.04      17.37
C      14.00      16.59      18.43
C      16.62      18.46      16.45
C      14.65      16.71      12.95
C      15.31      17.29      14.03
C      16.60      16.85      14.36
C       3.42      15.91      13.52
C      16.50      15.41      12.43
C      17.28      17.34      15.60
C      13.02      13.40      17.25
C      14.26      12.82      17.50
C      15.27      12.91      16.55
C      14.97      13.56      15.34
C      13.71      14.11      15.15
C       2.84      12.32      16.79
C       2.40       7.79      14.95
C       2.69       9.15      14.77
C       3.17       9.90      15.85
C       3.36       9.24      17.07
C       3.02       7.89      17.17
C       3.42      11.37      15.70
C       7.10      13.57      13.31
C       6.41      13.42      14.51
C       5.65      12.25      14.72
C       5.65      11.30      13.69
C       6.35      11.55      12.52
C       4.83      12.01      15.95
C       6.47      14.21      19.50
C       6.03      13.71      18.27
C       4.67      13.77      17.94
C       3.80      14.34      18.89
C       4.33      14.81      20.09
C       4.12      13.21      16.66
C       5.28      14.45       5.96
C       6.52      13.81       5.95
C       7.00      13.26       4.76
C       6.21      13.40       3.61
C       4.99      14.06       3.69
C       8.34      12.58       4.70
C       8.07       8.23       7.05
C       8.29       9.60       7.09
C       8.67      10.28       5.92
C       8.85       9.51       4.76
C       8.58       8.14       4.79
C       8.86      11.76       5.93
C      11.77      12.90       9.15
C      10.98      12.37       8.13
C      11.14      12.82       6.81
C      12.13      13.79       6.58
C      12.91      14.24       7.64
C      10.28      12.36       5.67
C      12.25      14.12       2.17
C      11.59      13.54       3.24
C      10.30      13.97       3.58
C       9.69      14.92       2.74
C      10.41      15.43       1.66
C       9.62      13.48       4.82
C      13.92      17.44       6.46
C      12.68      18.02       6.72
C      11.66      17.92       5.77
C      11.95      17.27       4.57
C      13.21      16.71       4.37
C      10.31      18.51       6.03
C       6.61       2.49       4.18
C       6.31       1.14       4.01
C       5.80       0.38       5.08
C       5.61       1.05       6.29
C       5.95       2.40       6.40
C       9.73      19.46       4.93
C       6.08      17.24       2.52
C       6.76      17.40       3.73
C       7.50      18.58       3.95
C       7.50      19.54       2.93
C       6.80      19.28       1.75
C       8.32      18.82       5.19
C       6.67      16.61       8.73
C       7.12      17.11       7.49
C       8.48      17.07       7.18
C       9.34      16.52       8.14
C       8.82      16.05       9.35
C       9.03      17.63       5.90
C      10.12       4.19       4.80
C      11.36       3.56       4.81
C      11.83       2.99       5.99
C      11.03       3.11       7.14
C       9.81       3.78       7.06
C      13.17       2.31       6.06
C      17.07      18.48       3.72
C      17.29      19.86       3.68
C      17.67      20.54       4.84
C       4.06      19.77       6.00
C       3.79      18.41       5.98
C      13.68       1.49       4.83
C       2.80       2.64       1.60
C       2.01       2.10       2.62
C       2.18       2.54       3.94
C       3.17       3.51       4.17
C       3.94       3.97       3.12
C       1.32       2.08       5.08
C       3.30       3.81       8.59
C       2.64       3.24       7.51
C       1.35       3.68       7.18
C      14.54       4.62       8.03
C       1.46       5.12       9.12
C       0.67       3.20       5.94
C       4.94       7.16       4.32
C       3.70       7.73       4.06
C       2.68       7.63       5.00
C       2.97       6.98       6.21
C       4.23       6.43       6.41
C      15.11       8.22       4.74
C      15.56      12.75       6.57
C      15.27      11.40       6.75
C      14.78      10.64       5.68
C      14.59      11.30       4.46
C      14.92      12.65       4.35
C      14.53       9.17       5.83
C      10.86       6.98       8.24
C      11.55       7.13       7.03
C      12.30       8.30       6.82
C      12.30       9.26       7.84
C      11.60       9.01       9.01
C      13.12       8.53       5.58
C      11.47       6.34       2.05
C      11.91       6.84       3.28
C      13.27       6.77       3.60
C      14.13       6.19       2.65
C      13.60       5.73       1.44
C      13.83       7.33       4.88
C      12.67       6.10      15.56
C      11.43       6.73      15.57
C      10.95       7.29      16.77
C      11.75       7.15      17.91
C      12.97       6.49      17.83
C       9.62       7.97      16.84
C       9.90      12.33      14.50
C       9.68      10.96      14.46
C       9.29      10.28      15.62
C       9.11      11.04      16.78
C       9.37      12.41      16.76
C       9.10       8.79      15.61
C       6.19       7.66      12.38
C       6.98       8.19      13.40
C       6.82       7.74      14.71
C       5.84       6.75      14.94
C       5.07       6.29      13.89
C       7.67       8.20      15.86
C       5.68       6.46      19.36
C       6.35       7.04      18.29
C       7.64       6.61      17.96
C       8.25       5.68      18.82
C       7.54       5.18      19.91
C       8.32       7.09      16.72
C       4.04       3.11      15.09
C       5.29       2.55      14.81
C       6.31       2.65      15.76
C       6.02       3.30      16.97
C       4.75       3.83      17.17
C       7.66       2.06      15.50
C      11.35      18.08      17.34
C      11.65      19.43      17.51
C      12.15      20.18      16.45
C      12.35      19.51      15.23
C      12.00      18.17      15.12
C       8.24       1.11      16.59
C      11.88       3.31      19.02
C      11.20       3.15      17.81
C      10.46       1.99      17.59
C      10.45       1.02      18.61
C      11.14       1.28      19.79
C       9.65       1.75      16.35
C      11.32       3.92      12.81
C      10.87       3.43      14.05
C       9.51       3.49      14.35
C       8.66       4.05      13.39
C       9.19       4.50      12.18
C       8.95       2.94      15.64
S      10.64      15.09      19.66
S      11.42      14.95      12.23
S      16.28      15.77       8.90
S      15.51      15.85       1.45
S       7.30       5.52       1.88
S       6.56       5.57       9.32
S       1.70       4.78      12.66
S       2.43       4.70      20.09
N       8.60      16.25      15.63
N       0.76       2.77      16.67
N      14.19      17.02      19.69
N      15.22      15.77      12.19
N      12.76      14.06      16.10
N       2.56       7.17      16.13
N       7.07      12.67      12.32
N       5.64      14.76      20.41
N       4.53      14.58       4.85
N       8.19       7.51       5.91
N      12.73      13.81       8.90
N      11.68      15.08       1.42
N      14.17      16.78       5.32
N       6.44       3.11       5.36
N       6.11      18.16       1.54
N       7.50      16.09       9.65
N       9.35       4.31       5.91
N      17.18      17.77       4.86
N       3.76       3.55       1.85
N       2.74       4.75       9.36
N       5.20       6.50       5.47
N      15.40      13.37       5.39
N      10.89       7.89       9.22
N      12.29       5.80       1.13
N      13.43       5.97      16.67
N       9.77      13.05      15.63
N       5.24       6.73      12.62
N       6.25       5.53      20.14
N       3.78       3.76      16.24
N      11.51      17.46      16.16
N      11.85       2.40      20.01
N      10.51       4.44      11.88
O      10.30      15.09      18.18
O       9.56      14.43      20.42
O      11.98      14.37      19.86
O      10.88      16.52      20.13
O      11.38      15.61      13.61
O      10.09      14.43      11.86
O      12.46      13.84      12.24
O      11.92      16.01      11.25
O      16.59      15.72       7.41
O       3.59      16.44       9.62
O      14.95      16.51       9.09
O      16.04      14.35       9.41
O      15.55      15.19       2.83
O      16.84      16.37       1.09
O      14.46      16.95       1.47
O      15.01      14.79       0.47
O       7.61       5.47       3.37
O       8.35       6.25       1.16
O       5.93       6.20       1.71
O       7.12       4.10       1.36
O       6.64       4.90       7.95
O       7.88       6.14       9.69
O       5.49       6.64       9.30
O       6.10       4.50      10.31
O       1.40       4.87      14.15
O      14.40       4.06      11.97
O       3.05       4.06      12.47
O       1.91       6.19      12.12
O       2.35       5.37      18.72
O       1.11       4.13      20.47
O       3.50       3.62      20.07
O       2.89       5.76      21.08
