30

H       2.89      11.20       6.73
H       4.36      20.00      10.09
H       3.57      18.73      12.03
H       3.68      12.47       4.79
H       2.86      12.20       8.93
H       4.40      19.00       7.89
C       3.45      13.85      10.75
C       3.80      17.35       6.07
C       3.12      12.83       8.10
C       4.13      18.37       8.73
C       3.13      12.25       6.84
C       4.12      18.95       9.98
C       3.55      12.98       5.74
C       3.70      18.22      11.08
C       3.89      14.33       5.87
C       3.36      16.87      10.95
C       3.69      15.01       7.11
C       3.56      16.19       9.71
C       3.42      14.21       8.27
C       3.83      16.99       8.55
C       3.79      16.43       7.25
C       3.46      14.77       9.57
C       4.76      14.84       4.84
C       2.49      16.36      11.98
N       5.49      15.19       4.02
N       1.76      16.01      12.80
O       4.63      13.34      11.16
O       2.62      17.86       5.66
O       2.24      13.50      11.16
O       5.02      17.70       5.66
