30

H       6.52      11.86       1.68
H       7.99       3.06      -1.68
H       7.19       4.33      -3.62
H       7.31      10.59       3.62
H       6.48      10.86      -0.52
H       8.02       4.06       0.52
C       7.08       9.21      -2.34
C       7.43       5.71       2.34
C       6.75      10.23       0.31
C       7.76       4.70      -0.31
C       6.76      10.81       1.57
C       7.75       4.11      -1.57
C       7.18      10.08       2.67
C       7.33       4.84      -2.67
C       7.52       8.73       2.54
C       6.98       6.19      -2.54
C       7.32       8.05       1.30
C       7.19       6.87      -1.30
C       7.05       8.86       0.14
C       7.46       6.07      -0.14
C       7.42       6.64       1.16
C       7.09       8.29      -1.16
C       8.39       8.22       3.57
C       6.12       6.70      -3.57
N       9.12       7.87       4.39
N       5.39       7.05      -4.39
O       8.26       9.72      -2.75
O       6.25       5.21       2.75
O       5.87       9.56      -2.75
O       8.64       5.36       2.75
