15

Zn       3.12       9.30      12.26
C       5.36       6.92      12.18
C       0.60       7.37      13.06
C       3.48      10.54      15.11
C       3.20      10.23       9.30
N       1.73      10.93      12.27
N       4.70      10.74      12.11
C       5.52      11.42      12.61
C       0.79      11.48      12.70
C       3.38       8.22      15.15
N       1.49       8.02      12.64
N       4.47       7.67      12.00
N       3.36       9.37      14.45
N       2.87       9.16      10.06
C       2.73       7.96       9.46
