15

C       1.36       0.94       0.87
Zn       3.72       3.14       1.24
C       6.10       1.00       0.86
C       3.98       4.14      -1.70
C       3.49       4.54       3.97
C       3.41       2.23       4.18
N       5.10       4.82       1.38
N       2.12       4.43       0.81
N       5.27       1.68       1.35
N       2.27       1.54       1.32
C       1.22       4.89       0.20
C       5.98       5.50       0.96
C       3.61       1.86      -1.57
N       3.90       3.02      -0.96
N       3.53       3.32       3.39
