19

C       0.83      14.68       8.05
C       1.68      14.42      10.26
C       1.51      13.33      11.30
C       3.64      12.10      10.86
C       4.26      12.46       9.50
C       3.86      10.29       8.35
Fe       1.37      11.92       8.78
C       2.65       9.60       7.76
C       0.60       9.08       8.87
C      -1.01      10.63      10.01
O       1.03      12.01       6.84
O      -0.40      11.71       9.58
H       1.83      11.28      11.33
H       3.73      12.17       7.54
N       1.30      13.85       8.95
N       2.16      12.10      10.80
N       3.54      11.73       8.44
N       1.47      10.00       8.55
C       0.57      13.04       6.16
