19

Fe       5.43       3.87       0.52
C       6.21       2.73      -2.09
C       5.96       1.10      -0.20
C       5.10       1.38       2.01
O       5.75       3.75      -1.40
C       3.16       3.73       2.61
C       2.53       3.36       1.26
C       2.93       5.51       0.07
C       4.16       6.18      -0.53
O       7.21       4.08       1.31
C       5.28       2.47       3.04
C       6.20       6.70       0.60
C       7.82       5.17       1.74
H       4.98       4.52       3.06
H       3.06       3.61      -0.71
N       5.49       1.93       0.69
N       4.64       3.71       2.54
N       3.25       4.07       0.19
N       5.33       5.79       0.27
