20

Nd       9.50      -0.09       9.41
Nd       5.11      -0.63       9.40
C      11.98      -2.35       8.53
C       7.49       0.65      11.78
C       6.98       2.17       8.64
C      12.44       1.63      10.28
C       7.11      -1.37       7.04
C       7.63      -2.88      10.17
O       8.75       0.67      11.65
O       6.06       1.34       8.43
O      11.15      -1.45       8.21
O      13.14      -2.15       8.95
O       8.15       1.92       9.03
O       6.67       0.23      10.96
O       5.86      -1.38       7.16
O       8.55      -2.06      10.38
O      13.26       0.73      10.60
O      11.27       1.44       9.86
O       6.45      -2.63       9.78
O       7.93      -0.95       7.86
