20

H      -0.70       6.25      10.05
H      -0.87      10.41      11.80
H       0.57      12.15       7.83
H       0.74       8.00       6.07
C      -1.02       8.11      11.42
C      -0.51       8.67      10.17
C      -0.25       7.79       9.07
C      -0.32      10.07      10.04
C       0.89      10.29       6.46
C       0.38       9.73       7.71
C       0.12      10.61       8.81
C       0.19       8.33       7.84
O      -1.39       8.90      12.40
O      -1.15       6.83      11.52
O      -0.42       6.45       9.12
O      -0.53      10.95      11.05
O       1.26       9.50       5.48
O       1.02      11.57       6.36
O       0.29      11.95       8.76
O       0.40       7.45       6.83
