20

H      -1.65       4.71      16.76
H      -5.45       3.01      15.01
H      -6.36       0.94      18.99
H      -2.57       2.64      20.74
C      -3.47       4.17      15.40
C      -3.73       3.46      16.65
C      -2.83       3.61      17.75
C      -4.91       2.66      16.78
C      -4.55       1.48      20.36
C      -4.29       2.19      19.11
C      -5.19       2.04      18.01
C      -3.11       2.99      18.97
O      -4.34       4.14      14.42
O      -2.38       4.86      15.29
O      -1.70       4.36      17.69
O      -5.79       2.46      15.77
O      -3.68       1.51      21.34
O      -5.64       0.79      20.46
O      -6.32       1.29      18.06
O      -2.23       3.19      19.99
