12

C       5.51       3.70       2.99
C       5.76       5.52       1.84
C       4.85       5.75       2.87
C       4.04       6.89       3.32
C       6.34       6.35       0.76
H       5.59       2.82       3.28
N       6.17       4.19       1.94
N       4.72       4.59       3.57
O       6.17       7.59       0.76
O       7.10       5.75      -0.02
O       3.14       6.64       4.18
O       4.20       8.05       2.85
