12

N      -5.00       2.89      11.98
N      -5.58       2.42       9.86
C      -4.82       3.12      10.68
C      -6.04       1.94      12.02
C      -6.37       1.65      10.67
C      -7.29       0.69      10.05
C      -6.50       1.56      13.32
O      -7.17       0.57       8.78
O      -8.16       0.09      10.75
O      -7.54       0.81      13.49
O      -5.90       2.00      14.34
H      -4.20       3.74      10.37
