12

C      -0.83       5.60       8.59
C      -2.81       4.86       8.13
C      -1.85       3.82       7.98
N      -2.10       6.00       8.54
N      -0.61       4.33       8.28
C      -4.21       5.02       7.91
C      -1.95       2.39       7.66
O      -4.94       4.09       7.39
O      -4.75       6.12       8.21
O      -0.87       1.72       7.83
O      -3.04       1.91       7.21
H      -0.13       6.17       8.81
