12

C       1.09      -0.96       3.52
C       1.51       0.68       4.86
C       1.59       1.11       3.51
C       1.97       2.39       2.89
H       0.86      -1.81       3.21
C       1.61       1.27       6.16
N       1.20      -0.69       4.82
N       1.32       0.05       2.70
O       2.13       2.34       1.62
O       2.06       3.45       3.59
O       1.74       2.55       6.33
O       1.52       0.53       7.18
