12

C      -2.93      -3.54       9.47
O      -4.93      -2.84       6.77
O      -3.42      -4.40       8.70
O      -2.18      -3.81      10.43
O      -5.21      -0.66       6.55
N      -4.19      -0.11       8.94
N      -2.97      -1.26      10.40
H      -3.39       0.69      10.59
C      -3.50      -0.08      10.08
C      -3.35      -2.12       9.38
C      -4.12      -1.38       8.48
C      -4.80      -1.67       7.21
