12

O      -7.18       7.83       7.77
O      -7.46      10.01       7.55
O      -8.97      11.57       5.62
O     -10.22      10.98       3.89
H      -9.01       6.48       3.73
C      -9.04       9.29       4.94
C      -8.28       8.55       5.84
C      -8.90       7.25       4.24
C      -9.47      10.71       4.85
N      -9.43       8.43       3.92
C      -7.59       8.84       7.11
N      -8.21       7.28       5.38
