12

N      -0.57       2.58      10.75
N      -2.02       2.98      12.38
C      -1.36       3.47      11.33
C      -1.61       1.66      12.48
C      -0.70       1.42      11.45
C       0.11       0.28      11.00
C      -2.19       0.83      13.56
O       1.01       0.53      10.14
O      -0.06      -0.88      11.47
O      -2.02      -0.42      13.56
O      -2.95       1.42      14.34
H      -1.44       4.35      11.04
