237

C       7.80      11.72      34.37
C       7.44      12.95       0.03
C       6.29      11.73       1.83
C       6.48      10.51       1.11
C       5.53       9.48       1.38
C       4.53       9.60       2.38
C       4.50      10.77       3.16
C       5.35      11.83       2.88
C       7.57      14.19      34.39
C       8.01      14.27      33.07
C       8.44      13.11      32.39
C       8.35      11.86      33.05
C       8.95      10.31       1.11
C       9.14       9.10       1.84
C       7.99       7.88       0.03
C       7.64       9.10      34.36
C       7.86       6.63      34.39
C       7.41       6.55      33.07
C       6.99       7.71      32.39
C       7.08       8.96      33.05
C       9.91      11.35       1.38
C      10.90      11.23       2.38
C      10.93      10.06       3.17
C      10.08       8.99       2.88
C       7.72      10.41       0.18
C       8.43       7.86       1.45
C       7.01      12.96       1.45
C      -1.47       9.69      11.03
C      -0.23       9.38      11.69
C      -0.72      10.99      13.50
C      -1.86      11.43      12.77
C      -2.29      12.78      13.05
C      -1.68      13.58      14.05
C      -0.66      13.02      14.84
C      -0.16      11.75      14.55
C       0.78       8.65      11.05
C       0.62       8.22       9.74
C      -0.59       8.43       9.06
C      -1.63       9.14       9.72
C      -3.27       9.39      12.77
C      -4.41       9.84      13.50
C      -4.90      11.44      11.69
C      -3.66      11.14      11.03
C      -5.91      12.18      11.06
C      -5.75      12.61       9.74
C      -4.54      12.39       9.06
C      -3.50      11.69       9.72
C      -2.84       8.05      13.05
C      -3.44       7.26      14.06
C      -4.46       7.82      14.85
C      -4.96       9.08      14.55
C      -2.57      10.41      11.84
C      -5.13      11.07      13.11
C       0.00       9.76      13.11
C      11.68       0.92      22.70
C      10.80       0.00      23.36
C       2.15      17.43      25.17
C      13.39       0.39      24.44
C      14.76       0.09      24.71
C       4.87      16.97      25.72
C       3.88      16.37      26.50
C       2.53      16.57      26.21
C      -0.63      17.29      22.72
C      -0.91      17.64      21.40
C      10.16       0.78      20.72
C      11.28       1.34      21.39
C      12.32       2.63      24.44
C      13.28       3.39      25.17
C      14.91       3.01      23.36
C      14.03       2.10      22.70
C      16.06       3.52      22.72
C      16.35       3.17      21.41
C      15.56       2.23      20.72
C      14.43       1.68      21.39
C      10.95       2.93      24.71
C      10.56       3.85      25.72
C      11.55       4.45      26.51
C      12.90       4.25      26.22
C      12.85       1.51      23.51
C      14.70       3.41      24.77
C       0.72      17.42      24.78
C       7.61       5.49      26.89
C       6.75       4.99      29.08
C       6.30       6.32      29.24
C       7.04       6.79      26.99
C       7.09       7.79      25.98
C       8.69       5.21      26.05
C       5.95       6.77      30.49
C      -6.77      12.96       3.56
C      -6.78      13.95       5.75
C      -5.40      13.68       5.91
C      -5.35      12.82       3.66
C      -4.52      12.29       2.64
C      13.01      12.17       2.72
C      -4.83      13.76       7.16
C      17.17       3.88      15.23
C      18.03       3.39      17.42
C      17.11       2.33      17.57
C      16.34       2.73      15.33
C      15.46       2.27      14.31
C      16.88       4.96      14.39
C      16.89       1.80      18.83
C       7.82      15.33      26.89
C       8.68      15.83      29.08
C       9.12      14.51      29.24
C       8.39      14.03      26.99
C       8.34      13.03      25.98
C       6.74      15.62      26.05
C       9.47      14.05      30.49
C       1.64       7.86       3.56
C       1.65       6.87       5.75
C       0.27       7.14       5.90
C       0.22       8.01       3.66
C      -0.61       8.54       2.64
C       2.42       8.66       2.71
C      -0.30       7.07       7.16
C      -1.73      16.95      15.22
C      -2.60      17.44      17.41
C       8.61       0.68      17.57
C       9.39       0.29      15.33
C      10.28       0.74      14.32
C      -1.44      15.87      14.38
C       8.82       1.21      18.83
H      11.60       9.96       3.93
H      10.18       8.13       3.42
H       8.13       5.76      34.86
H       7.41       5.64      32.61
H       6.73       9.78      32.56
H       9.89      12.23       0.87
H       5.55       8.60       0.87
H       3.82      10.87       3.93
H       5.25      12.70       3.41
H       8.70      11.04      32.56
H       7.30      15.06      34.86
H       8.01      15.18      32.61
H       9.10       7.01       1.60
H       7.57       7.72       2.11
H       6.34      13.82       1.61
H       7.87      13.10       2.10
H      15.67       7.29      15.61
H      14.80       9.43      15.09
H      -6.80      12.39      11.53
H      -6.54      13.07       9.28
H      -2.61      11.58       9.23
H      -2.07       7.63      12.54
H      -3.06      13.20      12.53
H      -0.23      13.55      15.60
H       0.64      11.40      15.08
H      -2.52       9.24       9.23
H       1.67       8.44      11.53
H       1.41       7.76       9.28
H      -6.21      10.90      13.25
H      -4.84      11.89      13.77
H       1.08       9.92      13.26
H      -0.29       8.94      13.77
H      11.30       5.09      27.27
H      13.60       4.77      26.76
H      16.68       4.19      23.20
H      17.14       3.63      20.95
H      13.89       0.97      20.89
H      10.20       2.48      24.20
H      15.51       0.54      24.20
H       4.13      15.73      27.27
H       1.83      16.05      26.75
H      11.82       2.05      20.89
H      -1.24      16.63      23.19
H      -1.71      17.19      20.94
H      15.10       4.42      24.92
H      15.27       2.74      25.43
H       0.33      16.41      24.93
H      10.44       0.28      25.43
H       6.73       4.32      29.86
H       6.97       6.60      24.33
H       6.99       8.24      24.01
H       9.19       5.99      25.69
H       5.39       6.17      31.06
H      -7.35      14.29       6.53
H      -5.49      12.99       1.00
H      -4.09      12.16       0.67
H      13.44      11.35       2.35
H      -5.07      14.55       7.72
H      -1.95       3.71      18.20
H      16.56       2.77      12.67
H      15.14       1.97      12.33
H      15.95       5.00      14.02
H      17.69       1.61      19.39
H       8.69      16.50      29.85
H       8.47      14.22      24.33
H       8.44      12.59      24.01
H       6.24      14.83      25.68
H      10.03      14.65      31.06
H       2.22       6.53       6.53
H       0.36       7.84       1.00
H      -1.04       8.67       0.67
H       2.00       9.48       2.35
H      -0.06       6.28       7.72
H      -3.19      17.12      18.18
H       9.19       0.26      12.66
H      10.62       1.05      12.35
H      -0.51      15.83      14.01
H       8.02       1.40      19.39
N       6.78       7.57      31.08
N       8.64      13.25      31.08
N       3.71       8.62       2.76
N      11.72      12.21       2.76
N      -4.56      12.64       7.74
N      -0.57       8.18       7.74
N      -2.12      14.78      14.43
N      -3.01       6.05      14.44
N      15.78       2.12      19.41
N       9.93       0.89      19.41
N       6.13      16.75      26.10
N       9.30       4.07      26.10
N       7.44       4.66      27.96
N       6.46       7.15      28.18
N       7.06       7.51      24.66
N      -7.40      13.52       4.63
N      -4.76      13.13       4.84
N      -4.75      12.45       1.32
N      17.97       4.15      16.30
N      16.31       2.05      16.51
N      15.73       2.39      12.99
N       7.99      16.16      27.96
N       8.96      13.67      28.18
N       8.37      13.31      24.66
N       2.27       7.30       4.63
N      -0.37       7.69       4.84
N      -0.38       8.37       1.32
N      -2.54      16.69      16.29
N       9.41       0.96      16.51
N      10.03       0.63      12.99
O       6.98       9.09      26.34
O      -3.33      11.73       3.00
O      14.39       1.52      14.66
O       8.45      11.73      26.34
O      -1.80       9.10       3.00
O      11.36       1.48      14.68
