52

Mn       7.92       6.82       0.10
C       6.02      -0.31      -1.86
Mn       5.90       2.32       0.10
Mn       5.97      10.96      -0.10
Mn       7.99      15.46      -0.10
C       7.80      12.86      -2.08
C      10.43       6.07       2.13
C       9.36       4.23       1.26
C       8.04       9.41       1.94
C       7.87       4.22      -1.82
C       7.87       0.31       1.86
C       9.06       8.17      -2.56
C       6.09       4.91       2.08
C      10.09       9.11      -0.73
C      10.33      16.14      -2.20
C       6.01      13.56       1.82
C       9.37      18.02      -1.26
C       3.48       2.98      -1.97
C       4.23       4.86      -0.87
N       9.51       5.57       1.28
C       4.83       9.61       2.56
N       4.66       9.58       1.22
N       4.43       1.11       1.32
N       9.62      14.26       1.01
N       4.38      12.21      -1.28
C       3.80       8.67       0.73
N       9.23       8.20      -1.22
N       9.46      16.67      -1.32
N       4.27       3.52      -1.01
C       3.56       1.64       2.20
O       7.61      10.23       1.07
O       8.27       8.17       1.73
O       7.47       1.22       1.06
O       8.20      -0.88       1.53
O       6.47       5.82       1.28
O       5.74       3.73       1.74
O       6.54      14.42       1.04
O       5.62      12.40       1.48
C       4.52      -0.24       1.26
C      10.41      14.80       1.97
C       9.66      12.91       0.87
O       6.28       7.54      -1.07
O       5.62       9.60      -1.73
O       6.41      -1.22      -1.06
O       5.69       0.88      -1.53
O       7.42      11.96      -1.28
O       8.15      14.04      -1.74
C       3.46      11.70      -2.13
O       8.27       5.38      -1.48
O       7.35       3.36      -1.04
C       4.53      13.55      -1.26
C       5.84       8.36      -1.94
