192

Sn       2.01       6.91      22.53
Sn       3.28       4.62      17.71
Sn       8.28       5.64      17.01
Sn       7.01       3.34      12.19
Sn       7.99       8.47      10.95
Sn       6.73       0.51       6.14
Sn       1.73       9.75       5.43
Sn       2.99       1.78       0.62
H       8.90       3.98      20.25
H       1.12       2.06      21.16
H       9.67       2.45      22.07
H       0.80       1.25      18.50
H       9.70       9.49      17.56
H       7.28       9.07      17.99
H       5.98       0.42      19.39
H       7.08       2.45      20.29
H       3.90       6.28      14.47
H       6.12       8.19      13.56
H       4.67       7.80      12.65
H       5.80       9.01      16.22
H       4.70       0.77      17.15
H       2.28       1.18      16.73
H       0.98       9.84      15.32
H       2.08       7.81      14.43
H       1.10       1.15       8.68
H       8.88       3.06       9.59
H       0.33       2.67      10.50
H       9.21       3.88       6.93
H       0.30       5.90       5.99
H       2.72       6.31       6.42
H       4.02       4.71       7.82
H       2.93       2.68       8.72
H       6.10       9.10       2.90
H       3.88       7.19       1.98
H       5.33       7.58       1.08
H       4.21       6.37       4.64
H       5.31       4.36       5.58
H       7.72       3.95       5.15
H       9.02       5.55       3.75
H       7.93       7.58       2.85
H       0.51       9.09      21.89
H       1.62       8.73      20.54
H       0.13       7.76      20.75
H       1.50       7.37       2.02
H       0.16       6.41       1.31
H       1.70       5.61       1.74
H       3.82       5.48      21.08
H       4.54       7.05      21.56
H       4.45       5.70      22.73
H       3.76       6.99      18.94
H       2.61       7.26      17.60
H       2.02       6.56      19.14
H       2.33       4.74      15.16
H       3.24       3.23      15.38
H       1.56       3.37      15.99
H       4.51       3.04      19.56
H       5.19       2.70      17.95
H       5.70       4.16      18.82
H       8.76       3.27      15.78
H       7.61       3.00      17.12
H       7.03       3.70      15.58
H       7.33       5.51      19.56
H       8.24       7.03      19.34
H       6.56       6.88      18.73
H       9.51       7.22      15.16
H       0.19       7.56      16.77
H       0.69       6.10      15.90
H       5.52       1.16      12.83
H       6.62       1.52      14.18
H       5.13       2.49      13.97
H       6.50       2.88       9.56
H       5.17       3.85      10.26
H       6.70       4.65       9.83
H       8.82       4.78      13.64
H       9.55       3.21      13.16
H       9.45       4.55      11.98
H       9.49       6.29      10.32
H       8.39       6.65       8.96
H       9.87       7.62       9.18
H       8.50       8.01      13.59
H       9.84       8.98      12.88
H       8.30       9.77      13.32
H       6.18       9.91       9.51
H       5.46       8.33       9.98
H       5.56       9.68      11.16
H       6.24       8.40       7.37
H       7.39       8.13       6.02
H       7.98       8.83       7.56
H       7.67       0.38       3.58
H       6.77       1.90       3.80
H       8.45       1.75       4.42
H       5.50       2.09       7.99
H       4.81       2.43       6.37
H       4.31       0.97       7.25
H       1.24       1.86       4.21
H       2.39       2.13       5.55
H       2.98       1.43       4.01
H       2.67       9.87       7.99
H       1.77       8.35       7.77
H       3.44       8.50       7.15
H       0.49       8.16       3.59
H       9.81       7.83       5.20
H       9.31       9.28       4.33
H       4.49       3.96       1.26
H       3.39       3.61       2.61
H       4.87       2.64       2.40
H       3.50       2.25      21.13
H       4.84       1.28      21.83
H       3.30       0.48      21.40
H       1.18       0.35       2.07
H       0.46       1.92       1.59
H       0.55       0.58       0.41
C       0.62       3.87      19.03
C       9.67       3.23      20.04
C       0.39       2.86      21.35
C       1.12       4.02      22.01
C       9.01       1.99      19.45
C       9.74       1.07      18.69
C       9.12      10.19      18.16
C       7.76       9.95      18.41
C       7.03       0.60      19.19
C       7.65       1.74      19.70
C       5.63       6.38      15.68
C       4.67       7.03      14.68
C       5.39       7.40      13.37
C       6.12       6.24      12.71
C       4.01       8.26      15.27
C       4.74       9.18      16.03
C       4.12       0.07      16.56
C       2.76       0.30      16.31
C       2.03       9.66      15.53
C       2.65       8.51      15.02
C       9.38       1.26       7.46
C       0.33       1.90       8.47
C       9.61       2.27       9.77
C       8.88       1.11      10.43
C       0.99       3.13       7.88
C       0.26       4.06       7.11
C       0.88       5.19       6.59
C       2.24       5.43       6.83
C       2.97       4.53       7.61
C       2.35       3.39       8.13
C       4.38       9.00       4.11
C       5.33       8.35       3.11
C       4.61       7.99       1.80
C       3.88       9.14       1.14
C       5.99       7.12       3.70
C       5.26       6.20       4.46
C       5.88       5.06       4.98
C       7.24       4.83       4.74
C       7.97       5.73       3.96
C       7.35       6.87       3.44
C       0.94       8.29      21.27
C       1.25       6.53       1.36
C       3.95       6.20      21.89
C       2.86       6.60      18.44
C       2.50       3.90      15.83
C       4.86       3.49      18.63
C       7.87       3.65      16.28
C       7.50       6.35      18.89
C       9.86       6.77      16.09
C       5.94       1.96      13.45
C       6.25       3.72      10.21
C       8.95       4.06      12.82
C       9.07       7.09       9.70
C       8.75       8.85      12.94
C       6.06       9.19      10.32
C       7.14       8.78       6.87
C       7.50       1.23       4.26
C       5.15       1.64       7.05
C       2.14       1.47       4.71
C       2.50       9.03       7.32
C       0.15       8.61       4.52
C       4.07       3.16       1.87
C       3.75       1.40      21.78
C       1.06       1.07       1.25
O       0.20       4.70      18.18
O       1.86       3.52      19.10
O       0.86       5.20      21.57
O       1.94       3.79      22.95
O       5.20       5.56      16.54
O       6.86       6.73      15.62
O       5.86       5.06      13.15
O       6.94       6.46      11.77
O       9.80       0.43       6.61
O       8.14       1.61       7.53
O       9.14      10.19      10.00
O       8.07       1.33      11.38
O       4.80       9.82       4.97
O       3.14       8.65       4.04
O       4.14       0.07       1.57
O       3.07       8.92       0.20
