22

Co      -1.41      -0.10       3.89
Co       1.86       3.62       3.89
H       1.00       5.08       7.47
H       2.71       2.16       0.31
C       3.38       5.59       2.21
C       3.26       6.61       1.11
C       3.22       0.47       1.30
C       2.97       1.09       2.65
C       0.70       5.95       7.60
C       0.33       1.65       5.57
C       0.45       0.63       6.68
C       0.49       6.77       6.49
C       0.74       6.15       5.14
C       3.02       1.29       0.19
O       4.35       5.63       3.02
O       2.48       4.72       2.24
O       3.75       0.86       3.60
O       1.98       1.88       2.73
O      -0.64       1.61       4.76
O       1.23       2.52       5.55
O      -0.04       6.38       4.19
O       1.73       5.36       5.06
