38

O       9.16       2.29       4.75
O      10.12       1.74       2.79
O       7.51      -4.18       9.32
O       5.89      -3.36      10.64
H       7.77      -2.84       7.23
H       3.11      -1.14       7.24
H       4.01      -2.35       9.23
O       3.92      -1.29       3.97
H       5.24       1.04       6.77
H       5.70       2.22       5.50
H       4.09       2.32       6.27
H       2.74       1.87       4.05
H       4.36       2.25       3.41
H       3.55       0.72       2.94
H       8.70      -2.90       2.30
O       8.07      -4.72       4.19
H       9.64      -0.56       2.04
H       7.57       0.63       5.60
C       6.49      -3.46       9.49
C       5.94      -2.68       8.33
C       6.76      -2.45       7.22
C       6.30      -1.71       6.13
O       5.94      -4.15       4.50
C       4.96      -1.26       6.14
C       4.13      -1.50       7.24
C       4.38      -0.59       4.93
C       4.88       1.63       5.92
C       3.70       1.44       3.75
C       7.18      -3.83       4.26
C       7.59      -2.42       4.07
C       8.44      -2.11       3.00
C       8.96      -0.83       2.86
C       4.63      -2.19       8.35
C       7.77      -0.14       4.86
C       7.20      -1.42       4.98
C       8.66       0.15       3.82
C       9.35       1.48       3.78
N       4.32       0.75       4.88
