10

O       0.29       4.76      11.54
O       0.92       9.57      11.73
H       2.11       7.50      11.81
H      -0.90       6.83      11.46
O       2.56       4.98      11.79
C       1.36       5.47      11.68
O      -1.35       9.35      11.48
C       1.21       6.89      11.69
C      -0.00       7.43      11.57
C      -0.15       8.85      11.59
