26

H       8.91       2.25       7.60
H       9.43       0.54      12.63
H       9.72       2.30      12.48
H      11.39      -1.00      11.59
H       8.28      -0.69      10.54
H      15.25      -1.02      10.04
H      14.95      -2.60       9.28
H      11.97       1.95      11.62
H      12.45      -1.83       9.08
H      13.02      -2.25      10.69
C       8.98       1.73       8.54
C       9.92       1.32      12.02
C       8.63       0.23      10.07
C       9.37       1.24      10.64
C      14.59      -1.57       9.36
C      11.87       0.98      13.54
C      11.46       1.09      12.07
C      13.15      -1.53       9.87
C      12.78      -0.13      10.37
N      14.73      -0.95       8.01
N      11.84      -0.11      11.34
N       8.38       0.53       8.75
N       9.59       2.20       9.65
O      11.84      -0.22      14.02
O      12.13       2.02      14.19
O      13.36       0.89       9.91
