480

C       0.21      49.05      27.03
C       0.19      50.25      27.72
C       0.16      49.97      29.09
C       0.17      48.01      27.97
C       0.17      46.62      27.65
C       0.14      45.57      28.61
C       0.13      44.46      30.55
C       0.10      43.52      29.52
C       0.11      44.21      28.32
C       0.13      44.16      31.94
C       0.15      45.14      32.98
C       0.16      47.10      34.10
C       0.19      46.06      35.04
C       0.18      44.86      34.35
C       0.16     -19.27      34.42
C       0.14     -18.22      33.46
C       0.13     -17.10      31.51
C       0.09     -16.16      32.55
C       0.10     -16.85      33.75
C       0.14     -16.80      30.12
C       0.12     -15.42      29.76
C       8.84     -14.75      29.55
C       8.81     -13.36      29.36
C       0.06     -12.58      29.37
C       1.28     -13.28      29.55
C       1.32     -14.67      29.75
C       0.02     -11.15      29.25
C       0.99     -10.45      28.48
C       0.96      -9.04      28.39
C      -0.02      -8.28      29.06
C       8.95      -8.98      29.81
C       8.98     -10.38      29.91
C       0.17     -18.88      35.80
C       8.91     -18.70      36.51
C       8.92     -18.18      37.82
C       0.19     -17.81      38.45
C       1.39     -18.02      37.74
C       1.39     -18.54      36.43
C       0.19     -17.22      39.76
C       9.29     -17.70      40.79
C       9.28     -17.10      42.07
C       0.16     -15.99      42.36
C       1.01     -15.51      41.34
C       1.02     -16.11      40.06
C       0.11      42.78      32.31
C       1.31      42.03      32.35
C       1.28      40.64      32.55
C       0.05      39.95      32.73
C       8.80      40.72      32.71
C       8.83      42.11      32.51
C       0.02      38.52      32.86
C       8.98      37.74      32.20
C       8.95      36.33      32.31
C      -0.03      35.65      33.09
C       0.95      36.42      33.77
C       0.97      37.83      33.65
C       0.19      46.24      26.27
C       1.41      45.91      25.64
C       8.93      46.04      25.56
C       8.94      45.51      24.26
C       0.21      45.15      23.62
C       1.42      45.37      24.34
C       0.22      44.54      22.32
C       1.06      43.43      22.04
C       1.05      42.81      20.77
C       0.20      43.27      19.74
C       9.31      44.38      20.02
C       9.32      45.00      21.29
C       0.21      26.26       2.48
C       0.21      26.26       1.10
C       0.17      27.58       0.66
C       0.18      27.59       2.92
C       0.18      28.01       4.28
C       0.16      29.37       4.71
C       0.14      31.61       4.70
C       0.11      31.18       6.03
C       0.12      29.80       6.04
C       0.15      32.96       4.26
C       0.17      33.37       2.90
C       0.19      33.36       0.64
C       0.22      34.69       1.07
C       0.20      34.69       2.45
C       0.09      -0.94      57.95
C       0.07      -2.29      57.52
C       0.06      -4.54      57.53
C       0.03      -4.11      56.20
C       0.04      -2.73      56.20
C       0.06      -5.89      57.97
C       0.05      -6.90      56.96
C       8.77      -7.41      56.47
C       8.75      -8.27      55.36
C      -0.00      -8.65      54.69
C       1.22      -8.15      55.21
C       1.25      -7.28      56.32
C      -0.03      -9.47      53.51
C       0.93     -10.49      53.29
C       0.91     -11.27      52.12
C      -0.07     -11.07      51.12
C       8.90     -10.07      51.34
C       8.92      -9.28      52.51
C       0.11       0.07      56.94
C       8.85       0.59      56.42
C       8.86       1.46      55.32
C       0.13       1.83      54.68
C       1.33       1.31      55.22
C       1.33       0.44      56.33
C       0.14       2.67      53.51
C       9.24       3.80      53.41
C       9.23       4.61      52.26
C       0.11       4.30      51.15
C       0.96       3.18      51.25
C       0.97       2.37      52.40
C       0.13      33.97       5.27
C       1.33      34.37       5.91
C       1.30      35.25       7.01
C       0.07      35.75       7.52
C       8.82      35.35       6.86
C       8.85      34.48       5.76
C       0.04      36.58       8.69
C       9.00      36.39       9.70
C       8.98      37.20      10.86
C      -0.00      38.21      11.06
C       0.97      38.41      10.05
C       0.99      37.61       8.90
C       0.19      27.01       5.30
C       1.41      26.63       5.91
C       8.93      26.50       5.82
C       8.94      25.63       6.93
C       0.21      25.26       7.57
C       1.41      25.77       7.02
C       0.21      24.44       8.75
C       1.05      24.74       9.85
C       1.03      23.96      11.02
C       0.18      22.84      11.13
C       9.29      22.53      10.03
C       9.30      23.32       8.86
C       0.15      16.40      34.49
C       0.13      15.20      35.19
C       0.10      14.16      34.26
C       0.12      16.11      33.13
C       0.11      17.08      32.08
C       0.10      16.77      30.69
C       0.08      15.64      28.75
C       0.05      17.01      28.46
C       0.06      17.70      29.65
C       0.09      14.59      27.80
C       0.11      13.20      28.13
C       0.12      11.25      29.27
C       0.16      10.96      27.90
C       0.15      12.16      27.21
C       0.12      10.28      30.31
C       0.09      10.58      31.70
C       0.08      11.71      33.64
C       0.04      10.35      33.94
C       0.06       9.65      32.74
C       0.08      12.77      34.59
C       0.06      12.40      35.97
C       8.78      12.24      36.65
C       8.75      11.71      37.96
C      -0.00      11.32      38.63
C       1.22      11.51      37.94
C       1.26      12.04      36.63
C      -0.04      10.70      39.93
C       0.92      11.02      40.92
C       0.90      10.40      42.19
C       9.86       9.43      42.50
C       8.89       9.12      41.52
C       8.92       9.74      40.26
C       0.14       8.90      29.96
C       8.88       8.19      29.75
C       8.90       6.79      29.55
C       0.17       6.06      29.55
C       1.37       6.79      29.74
C       1.36       8.18      29.94
C       0.18       4.63      29.42
C       9.29       3.98      28.48
C       9.28       2.57      28.36
C       0.16       1.77      29.18
C       1.00       2.42      30.11
C       1.01       3.82      30.23
C       0.08      14.96      26.42
C       1.27      15.30      25.76
C       1.24      15.82      24.45
C       0.02      16.02      23.76
C       8.77      15.65      24.43
C       8.79      15.13      25.74
C      -0.01      16.61      22.46
C       8.95      17.58      22.11
C       8.93      18.18      20.84
C       9.90      17.85      19.86
C       0.93      16.88      20.19
C       0.94      16.28      21.46
C       0.14      18.46      32.44
C       1.36      19.17      32.47
C       8.87      19.18      32.62
C       8.89      20.57      32.81
C       0.16      21.30      32.82
C       1.37      20.57      32.65
C       0.17      22.73      32.94
C       1.01      23.53      32.12
C       1.00      24.94      32.22
C       0.15      25.60      33.13
C       9.26      24.81      33.96
C       9.27      23.40      33.85
C       9.75      41.92      16.36
C       8.72      41.65      15.41
C       8.99      40.91      14.23
C       0.35      40.41      13.96
C       1.36      40.68      14.91
C       1.10      41.41      16.09
C       6.70      41.18      13.55
C       6.44      41.90      14.73
C       5.65      40.93      12.54
C       9.51      42.72      17.48
C       0.69      39.75      12.78
C       9.72      20.59      14.00
C       8.69      19.90      14.70
C       8.95      19.25      15.94
C       0.31      19.26      16.51
C       1.33      19.95      15.80
C       1.07      20.61      14.58
C       6.66      18.52      16.04
C       6.40      19.18      14.82
C       5.61      17.78      16.75
C       9.49      21.16      12.74
C       0.65      18.57      17.67
C       9.71      29.21      33.65
C       8.69      30.16      33.89
C       8.96      31.56      33.84
C       0.32      32.04      33.55
C       1.33      31.08      33.30
C       1.06      29.70      33.35
C       6.66      32.02      34.42
C       6.40      30.64      34.45
C       5.61      33.01      34.70
C       9.47      27.84      33.78
C       0.66      33.39      33.57
C       9.70     -14.69      45.76
C       8.67     -14.44      46.71
C       8.94     -13.71      47.91
C       0.29     -13.22      48.19
C       1.31     -13.47      47.23
C       1.05     -14.18      46.05
C       6.64     -14.00      48.58
C       6.39     -14.70      47.38
C       5.59     -13.76      49.58
C       9.47     -15.47      44.63
C       0.64     -12.57      49.38
C       9.67       6.60      48.32
C       8.64       7.29      47.62
C       8.91       7.97      46.40
C       0.27       7.96      45.83
C       1.28       7.26      46.53
C       1.01       6.59      47.74
C       6.61       8.69      46.30
C       6.35       8.01      47.51
C       5.56       9.45      45.59
C       9.43       6.01      49.56
C       0.61       8.67      44.68
C       9.72      -1.83      28.61
C       8.70      -2.78      28.35
C       8.97      -4.18      28.37
C       0.33      -4.67      28.67
C       1.34      -3.71      28.93
C       1.07      -2.33      28.90
C       6.68      -4.63      27.79
C       6.41      -3.25      27.78
C       5.63      -5.62      27.49
C       9.48      -0.46      28.49
C       0.67      -6.02      28.63
H       8.69      44.76      19.30
H       8.71      45.81      21.44
H       1.66      42.01      20.61
H       1.67      43.04      22.76
H       2.32      45.14      23.92
H       2.29      46.02      26.14
H       8.04      45.34      23.80
H       8.03      46.24      26.01
H       0.23      48.97      26.02
H       0.21      51.17      27.28
H       0.11      48.14      30.01
H       0.10      46.97      32.06
H       0.09      43.76      27.40
H       0.07      42.50      29.60
H       2.21      42.49      32.17
H       2.16      40.13      32.52
H       7.95      42.63      32.47
H       7.89      40.27      32.85
H       0.20      43.94      34.79
H       0.22      46.15      36.05
H       0.06     -15.14      32.47
H       0.08     -16.40      34.67
H       8.01     -18.91      36.06
H       8.02     -18.02      38.28
H       2.28     -18.64      35.93
H       2.30     -17.78      38.16
H       1.63     -15.70      39.35
H       1.61     -14.70      41.51
H       8.66     -17.50      42.78
H       8.69     -18.51      40.63
H       2.21     -15.13      29.93
H       2.17     -12.76      29.60
H       8.27     -10.84      30.50
H       8.22      -8.46      30.31
H       1.67      -8.58      27.81
H       1.71     -10.96      27.96
H       7.90     -12.91      29.21
H       7.96     -15.27      29.58
H       8.28      38.18      31.59
H       8.23      35.81      31.81
H       1.68      38.34      34.18
H       1.64      35.97      34.36
H       8.67      21.72      10.06
H       8.70      23.04       8.09
H       1.65      24.22      11.80
H       1.66      25.56       9.83
H       2.32      25.52       7.44
H       2.30      27.00       5.56
H       8.04      25.32       7.31
H       8.03      26.79       5.42
H       0.24      25.42       3.07
H       0.23      25.41       0.53
H       0.13      29.30       1.78
H       0.12      31.65       1.77
H       0.10      29.23       6.88
H       0.08      31.76       6.87
H       2.23      34.00       5.60
H       2.18      35.48       7.47
H       7.97      34.18       5.33
H       7.91      35.69       7.18
H       0.22      35.54       3.03
H       0.24      35.53       0.49
H      -0.00      -4.69      55.36
H       0.02      -2.15      55.35
H       7.95       0.31      56.82
H       7.96       1.78      54.94
H       2.21       0.06      56.67
H       2.24       1.56      54.81
H       1.57       1.55      52.41
H       1.57       2.92      50.46
H       8.61       5.42      52.24
H       8.64       4.07      54.20
H       2.15      -6.90      56.63
H       2.10      -8.36      54.74
H       8.22      -8.54      52.61
H       8.18      -9.89      50.64
H       1.61     -12.01      52.02
H       1.64     -10.68      54.00
H       7.84      -8.62      55.04
H       7.89      -7.12      56.90
H       8.31      35.65       9.62
H       8.26      37.03      11.56
H       1.70      37.80       8.19
H       1.67      39.15      10.15
H       8.64      25.24      34.64
H       8.66      22.87      34.48
H       1.62      25.48      31.61
H       1.62      23.10      31.42
H       2.27      21.05      32.66
H       2.24      18.69      32.31
H       7.99      21.06      32.89
H       7.97      18.69      32.57
H       0.17      17.32      34.93
H       0.15      15.13      36.21
H       0.06      14.27      32.22
H       0.06      13.09      30.18
H       0.04      18.72      29.73
H       0.03      17.45      27.54
H       2.17      15.22      26.24
H       2.13      16.11      24.03
H       7.91      14.91      26.21
H       7.86      15.76      23.97
H       0.16      12.23      26.19
H       0.18      10.04      27.47
H       0.01       9.91      34.86
H       0.04       8.64      32.67
H       7.98       8.67      29.80
H       8.00       6.31      29.46
H       2.25       8.67      30.10
H       2.28       6.31      29.74
H       1.61       4.24      30.94
H       1.61       1.87      30.72
H       8.67       2.15      27.66
H       8.68       4.52      27.85
H       2.16      12.11      36.15
H       2.11      11.21      38.36
H       8.22       9.46      39.57
H       8.17       8.43      41.72
H       1.60      10.67      42.88
H       1.64      11.73      40.74
H       7.84      11.60      38.42
H       7.90      12.46      36.19
H       8.26      17.88      22.80
H       8.21      18.88      20.63
H       1.65      15.56      21.65
H       1.62      16.59      19.50
H       5.51      42.28      14.93
H       1.87      41.59      16.72
H       2.32      40.35      14.75
H       6.04      40.36      11.70
H       5.26      41.88      12.17
H       4.83      40.37      13.00
H       8.78      43.38      17.43
H       1.60      39.89      12.41
H       5.48      19.18      14.39
H       1.85      21.06      14.10
H       2.29      19.98      16.17
H       6.00      17.34      17.67
H       5.22      16.98      16.12
H       4.79      18.45      17.01
H       8.75      20.79      12.19
H       1.57      18.18      17.73
H       5.47      30.27      34.67
H       1.84      29.05      33.19
H       2.29      31.38      33.10
H       6.01      34.03      34.63
H       5.23      32.87      35.71
H       4.80      32.91      33.99
H       8.74      27.55      34.38
H       1.57      33.64      33.88
H       5.46     -15.07      47.17
H       1.83     -14.36      45.41
H       2.27     -13.14      47.40
H       5.97     -13.20      50.43
H       5.20     -14.72      49.94
H       4.77     -13.19      49.13
H       8.74     -16.14      44.66
H       1.55     -12.72      49.75
H       5.42       8.01      47.93
H       1.79       6.12      48.21
H       2.24       7.24      46.17
H       5.95       9.90      44.68
H       5.17      10.23      46.24
H       4.75       8.77      45.32
H       8.69       6.37      50.12
H       1.53       9.06      44.63
H       5.48      -2.88      27.56
H       1.85      -1.68      29.07
H       2.30      -4.01      29.13
H       6.02      -6.64      27.55
H       5.24      -5.46      26.48
H       4.81      -5.52      28.20
H       8.75      -0.16      27.90
H       1.59      -6.26      28.32
N       0.15      48.62      29.18
N       0.15      45.67      29.96
N       0.14      46.50      32.89
N       0.15     -18.31      32.11
N       9.82      -6.95      29.01
N       0.25      42.63      18.57
N       9.81      34.32      33.16
N       0.21     -15.36      43.54
N       0.16      28.34       1.79
N       0.17      30.48       3.95
N       0.16      32.61       1.77
N       0.08      -3.41      58.28
N       9.78     -11.78      50.00
N       0.23      22.15      12.28
N       9.84      38.94      12.17
N       0.16       5.01      50.01
N       0.09      14.75      33.05
N       0.11      15.56      30.10
N       0.10      12.60      29.35
N       0.10      11.80      32.29
N       9.76       8.81      43.68
N       0.21      26.94      33.16
N       9.80      18.45      18.67
N       0.22       0.43      29.13
N       7.96      40.72      13.35
N       7.45      42.11      15.60
N       7.92      18.58      16.53
N       7.42      19.84      14.21
N       7.93      32.41      34.12
N       7.41      29.77      34.19
N       7.90     -13.54      48.78
N       7.40     -14.89      46.51
N       7.88       8.64      45.81
N       7.37       7.35      48.11
N       7.94      -5.03      28.08
N       7.43      -2.39      28.05
