33

Mn       3.92       1.37      14.59
Mn       8.48      -1.37      19.18
Mn       6.20       0.00      16.89
C       0.75       1.29      13.93
C       4.78       4.60      14.58
C       4.03      -1.60      15.15
C       3.64       1.73      17.59
C       6.47       1.20      13.77
N       1.81       2.46      12.45
N       4.27       3.54      13.94
N       3.59       4.04      12.86
N       1.98       1.64      13.53
N      10.59      -2.46      21.33
N       8.14      -3.54      19.83
N       8.81      -4.04      20.92
N      10.42      -1.64      20.24
O       3.64      -0.69      14.34
O       5.68       1.13      12.79
O       6.03       1.20      15.00
O       3.11       1.86      16.43
O       4.80       1.27      17.82
O       4.70      -1.40      16.22
O       8.76       0.69      19.44
O       6.72      -1.13      20.98
O       6.38      -1.20      18.77
O       9.30      -1.86      17.34
O       7.60      -1.27      15.95
O       7.70       1.40      17.56
C      11.66      -1.29      19.85
C       7.62      -4.60      19.20
C       8.37       1.60      18.62
C       8.76      -1.73      16.18
C       5.93      -1.20      20.01
