13

N       4.90       7.07      10.89
C       5.51       6.55       9.77
N       4.00       8.22      13.48
C       3.71       7.66      10.48
Sn       5.28       6.34      13.03
C       2.93       8.60      12.68
C       3.83       8.82      14.70
N       6.56       7.46      14.65
N       7.43       6.26      12.08
C       6.00       8.07      15.76
C       7.79       6.94      15.04
C       8.53       5.92      12.87
C       7.65       5.73      10.83
