13

N       7.66       4.34       5.78
Cu       8.19       3.18       4.16
C       6.47       1.28       2.75
C       5.40       3.28       3.21
C      10.38       3.24       2.22
C       8.59       4.98       6.52
C       6.47       4.11       6.39
C       9.57       5.34       2.78
N       9.01       1.78       5.42
C       8.14       1.11       6.23
C      10.25       2.00       5.93
N       6.52       2.51       3.29
N       9.47       3.99       2.89
