13

N       9.79       9.79       9.47
C       7.72      12.26       6.24
Cu       8.12      10.46       8.60
N       6.84      11.27       9.87
C       9.84      11.39       6.37
N       7.30       9.05       7.34
C       6.06       9.27       6.83
C       8.16       8.39       6.53
C       9.84       8.55      10.01
C      10.91      10.56       9.55
C       5.93      10.52      10.53
C       6.74      12.62       9.98
N       8.65      11.62       6.98
