14

C       4.56       3.57       4.46
C       5.66       4.33       3.84
C       7.04       4.30       4.09
C       7.58       5.17       3.14
C       8.96       5.56       2.88
H       9.60       4.21       4.21
O       4.82       2.55       5.17
O       9.90       5.01       3.69
O       9.31       6.36       2.02
H       7.56       3.70       4.82
O       3.36       3.97       4.23
H       6.55       6.30       1.54
N       5.38       5.17       2.82
N       6.54       5.67       2.40
