13

H       8.91       7.01       0.25
H       7.61       7.64      -3.74
N      10.01       7.35      -1.46
N       8.87       7.20      -0.76
C      10.66       7.83      -3.75
C       9.63       7.57      -2.73
C       8.22       7.53      -2.85
C       7.76       7.28      -1.56
C       6.36       7.22      -1.04
O      10.40       8.53      -4.78
O      11.84       7.35      -3.55
O       5.45       7.30      -1.93
O       6.18       7.13       0.21
