656

C      19.15      33.79       0.05
C      27.76     -16.82      34.10
C      16.70      33.69       0.01
C      16.77      32.31       0.25
C      18.00      31.63       0.35
C      19.20      32.38       0.27
C      27.73     -15.42      33.89
C      20.46      31.75       0.38
C      -9.25     -16.72      34.14
C      -9.30     -15.30      33.92
C      -8.10     -14.55      33.84
C      -6.86     -15.23      33.93
C      -6.80     -16.61      34.17
C     -17.86      33.90       0.08
C     -10.56     -14.68      33.80
C     -17.82      32.50       0.29
C      24.66       7.84      17.04
C     -13.62       7.07      17.17
C      25.78       5.66      17.08
C      24.55       5.03      16.83
C      23.35       5.76      16.74
C      23.41       7.18      16.82
C     -12.39       7.74      17.38
C      22.24       7.96      16.70
C     -14.75       9.26      17.14
C     -13.50       9.92      17.36
C     -13.45      11.33      17.44
C     -14.64      12.07      17.35
C     -15.88      11.44      17.10
C      23.52      10.02      17.01
C     -12.33       9.13      17.48
C      22.30       9.36      16.80
C       4.68       7.98      17.42
C       4.53       7.99      18.84
C       3.98       6.86      19.49
C       3.60       5.73      18.74
C       3.71       5.71      17.34
C       4.26       6.83      16.67
C       4.95       9.13      19.57
C       4.41       6.85      15.27
C       5.23       9.12      16.76
C       5.64      10.26      17.51
C       6.20      11.38      16.85
C       6.30      11.36      15.44
C       5.92      10.23      14.69
C       5.37       9.10      15.34
C       5.49      10.24      18.92
C       4.96       7.96      14.62
C      19.39      -0.52      33.86
C      19.48      -0.64      32.44
C      18.77      -1.69      31.79
C      17.98      -2.57      32.54
C      17.91      -2.49      33.94
C      28.47      15.64       0.43
C      20.26       0.28      31.71
C      28.42      15.78       1.83
C      -9.49      17.61       0.33
C     -18.57       1.45      33.76
C      -8.01      19.58       0.25
C      -8.08      19.66       1.65
C      -8.87      18.77       2.40
C      -9.57      17.73       1.75
C     -18.52       1.31      32.36
C     -10.36      16.81       2.48
C      15.10      -7.93      17.34
C      15.41      -7.81      18.72
C      15.94      -6.59      19.22
C      16.19      -5.53      18.33
C      15.89      -5.62      16.96
C      15.33      -6.83      16.45
C      15.17      -8.91      19.58
C      15.01      -6.98      15.09
C      -5.19      25.03      16.84
C      -5.43      23.93      17.72
C      -5.98      22.72      17.22
C      -6.28      22.63      15.85
C      -6.03      23.69      14.96
C      -5.50      24.91      15.45
C      -5.10      24.07      19.09
C      -5.26      26.01      14.60
C       0.41       0.54      33.93
C       0.36       0.87      32.55
C       1.16       1.94      32.06
C       1.95       2.68      32.95
C      11.88      19.46       0.14
C      11.11      18.38       0.64
C      -0.47       0.12      31.69
C      11.14      18.02       2.00
C       9.49      16.54       0.24
C      -1.22      -1.30      33.54
C      -1.99      -2.38      34.04
C       7.95      14.40       1.23
C       8.74      15.15       2.12
C       9.54      16.21       1.63
C      -1.25      -0.94      32.17
C      10.37      16.96       2.49
C      -4.79      -7.84      17.02
C      -5.86      -6.92      17.23
C      -5.63      -5.53      17.08
C      -4.34      -5.08      16.76
C      -3.27      -5.96      16.55
C      -3.49      -7.36      16.67
C      32.33      -7.42      17.58
C     -22.19      25.89      16.47
C      14.70      24.94      17.16
C      13.40      24.45      17.51
C      13.17      23.06      17.63
C      14.24      22.17      17.42
C      15.53      22.63      17.10
C      15.77      24.02      16.95
C      32.10      -8.79      17.71
C     -22.42      24.51      16.60
C      20.30       0.46       0.06
C      -7.97      17.08      34.04
C      22.71       0.89       0.01
C      22.46       2.24       0.32
C      21.16       2.72       0.53
C      20.07       1.83       0.41
C      -7.76      15.73      33.69
C      18.74       2.26       0.61
C     -10.40      16.64      34.11
C     -10.17      15.27      33.76
C     -11.26      14.37      33.64
C     -12.57      14.86      33.85
C     -12.81      16.21      34.17
C      17.87       0.01       0.14
C      -8.84      14.84      33.56
C      17.66       1.37       0.48
C      14.13      21.91       1.57
C      14.15      22.99       2.47
C      14.88      24.16       2.19
C      15.63      24.28       0.99
C      15.66      23.18       0.09
C      14.92      22.01       0.40
C      16.21      25.54       0.66
C      17.25      26.14       1.43
C      17.73      27.43       1.07
C       7.33      11.05      34.14
C       6.31      10.42      33.39
C       5.83       9.15      33.73
C       7.68      12.36      33.83
C      13.31      20.80       1.80
C      16.89      -2.45      15.53
C      17.81      -1.89      14.62
C      18.45      -0.67      14.90
C      18.19       0.04      16.10
C      17.23      -0.49      17.01
C      16.59      -1.72      16.71
C      18.99       1.18      16.43
C      18.97       2.38      15.67
C      19.84       3.44      16.03
C      20.73       3.34      17.13
C      20.71       2.14      17.88
C      19.87       1.08      17.53
C      21.67       4.32      17.45
C      16.34      -3.71      15.30
C      -0.41      -3.87      15.82
C       0.85      -3.50      16.35
C       1.29      -2.17      16.30
C       0.50      -1.15      15.72
C      -0.75      -1.51      15.14
C      -1.18      -2.86      15.20
C       0.90       0.21      15.84
C       2.08       0.73      15.24
C       2.45       2.09      15.47
C       1.66       2.94      16.29
C       0.49       2.40      16.86
C       0.11       1.07      16.65
C       2.05       4.23      16.64
C      -0.89      -5.16      15.98
C      21.55       6.24       1.26
C      21.24       7.52       0.74
C      22.17       8.57       0.79
C      23.45       8.39       1.37
C      23.76       7.12       1.94
C      22.81       6.07       1.88
C      24.43       9.42       1.25
C      24.29      10.70       1.86
C      25.28      11.69       1.64
C      26.41      11.45       0.82
C      26.53      10.17       0.24
C      25.56       9.18       0.44
C      27.34      12.43       0.49
C      20.67       5.18       1.10
C      -4.24      -4.83      32.61
C      -4.25      -5.91      31.71
C      -4.98      -7.08      31.99
C      -5.73      -7.20      33.19
C      -5.76      -6.10      34.09
C      -5.02      -4.93      33.78
C      -6.31      -8.46      33.52
C      -7.34      -9.07      32.76
C      -7.82     -10.36      33.11
C       2.58       6.02       0.04
C       3.60       6.65       0.79
C       4.08       7.92       0.45
C       2.23       4.71       0.36
C      -3.42      -3.72      32.38
C      -6.98      19.55      18.64
C      -7.90      18.99      19.55
C      -8.55      17.77      19.27
C      -8.28      17.06      18.08
C      -7.33      17.59      17.17
C      -6.68      18.82      17.47
C      -9.08      15.92      17.75
C      -9.06      14.72      18.51
C      -9.93      13.65      18.15
C     -10.82      13.75      17.05
C     -10.81      14.95      16.30
C      -9.96      16.02      16.65
C     -11.76      12.78      16.73
C      -6.44      20.81      18.87
C      10.31      20.96      18.36
C       9.06      20.59      17.83
C       8.62      19.26      17.88
C       9.41      18.25      18.47
C      10.65      18.61      19.05
C      11.09      19.96      18.99
C       9.01      16.88      18.35
C       7.82      16.36      18.94
C       7.46      15.01      18.71
C       8.24      14.15      17.90
C       9.42      14.69      17.33
C       9.79      16.02      17.54
C       7.86      12.86      17.55
C      10.80      22.26      18.20
C     -11.65      10.85      32.92
C     -11.34       9.58      33.44
C     -12.27       8.52      33.39
C     -13.55       8.71      32.81
C     -13.86       9.97      32.25
C     -12.91      11.02      32.30
C     -14.53       7.67      32.94
C     -14.39       6.40      32.33
C     -15.38       5.40      32.55
C     -16.50       5.64      33.37
C     -16.63       6.92      33.95
C     -15.66       7.92      33.75
C     -17.44       4.66      33.71
C     -10.77      11.92      33.08
C       6.29      -0.36       1.16
C       7.14       0.58       1.77
C       8.53       0.53       1.54
C     -10.65      33.72       0.70
C     -11.49      32.74       0.12
C     -12.89      32.80       0.35
C      -9.26      33.77       0.43
C      11.44      -0.69       1.43
C      -6.92      33.50       1.08
C     -16.36      16.69      33.94
C     -17.34      16.99      32.97
C     -18.70      16.99      33.30
C     -15.05      16.51      33.55
C       4.92      -0.16       1.23
C      21.26      13.81      15.93
C      21.63      15.02      15.31
C      20.89      16.19      15.53
C      19.76      16.17      16.38
C      19.35      14.95      16.98
C      20.11      13.78      16.75
C      19.10      17.40      16.66
C      18.36      18.09      15.66
C      17.68      19.28      16.01
C      17.72      19.80      17.32
C     -20.98      19.11      18.29
C     -20.30      17.93      17.96
C      16.91      20.85      17.72
C      22.13      12.74      15.87
C       7.38      10.41      11.48
C       8.53      11.17      11.20
C       8.66      11.84       9.97
C       7.63      11.76       9.00
C       6.49      10.97       9.26
C       6.37      10.30      10.50
C       7.76      12.53       7.82
C       8.74      12.23       6.84
C       8.78      13.01       5.65
C       7.87      14.07       5.43
C       6.92      14.37       6.43
C       6.87      13.61       7.61
C       7.79      14.71       4.20
C       7.19       9.95      12.77
C      -9.44      20.13       5.60
C      -9.35      21.51       5.88
C      -8.83      21.96       7.10
C      -8.39      21.04       8.08
C      -8.51      19.64       7.83
C      -9.04      19.20       6.59
C      -7.78      21.54       9.26
C      -8.53      22.24      10.23
C      -7.88      22.67      11.42
C      -6.51      22.41      11.64
C      -5.78      21.73      10.64
C      -6.41      21.31       9.46
C      -5.92      22.65      12.87
C      -9.75      19.73       4.32
C       3.61      17.43      33.02
C       2.75      16.51      32.40
C       1.37      16.56      32.62
C      20.55     -16.63      33.47
C      21.40     -15.66      34.07
C      22.80     -15.73      33.84
C      19.16     -16.67      33.74
C      -1.54      17.80      32.75
C      16.83     -16.39      33.09
C      26.26       0.41       0.23
C      27.24       0.10       1.20
C      28.60       0.10       0.87
C      24.94       0.59       0.62
C       4.97      17.22      32.96
C     -11.36       3.28      18.25
C     -11.73       2.07      18.87
C     -10.98       0.90      18.65
C      -9.85       0.92      17.80
C      -9.44       2.14      17.20
C     -10.20       3.31      17.44
C      -9.19      -0.30      17.53
C      -8.46      -0.99      18.52
C      -7.78      -2.18      18.18
C      -7.82      -2.70      16.86
C      30.89      -2.02      15.89
C      30.20      -0.84      16.22
C      -7.01      -3.76      16.47
C     -12.22       4.35      18.31
C       2.53       6.68      22.70
C       1.38       5.91      22.98
C       1.25       5.24      24.20
C       2.27       5.32      25.18
C       3.41       6.12      24.93
C       3.53       6.80      23.69
C       2.14       4.55      26.36
C       1.16       4.84      27.34
C       1.12       4.07      28.52
C       2.03       3.01      28.75
C       2.98       2.72      27.75
C       3.03       3.47      26.56
C       2.11       2.38      29.97
C       2.72       7.15      21.42
C      19.34      -3.05      28.58
C      19.26      -4.43      28.30
C      18.75      -4.87      27.07
C      18.30      -3.95      26.10
C      18.41      -2.55      26.36
C      18.93      -2.12      27.60
C      17.70      -4.44      24.92
C      18.45      -5.13      23.94
C      17.80      -5.56      22.75
C      16.42      -5.31      22.53
C      15.69      -4.64      23.54
C      16.32      -4.22      24.72
C      15.83      -5.55      21.30
C      19.64      -2.65      29.87
H      15.90      31.77       0.32
H      -5.99     -14.69      33.87
H     -10.63     -13.67      33.65
H      26.84     -14.93      33.80
H     -16.93      32.00       0.38
H      20.53      30.74       0.53
H      24.52       4.01      16.77
H     -14.61      13.09      17.42
H     -11.42       9.58      17.63
H     -11.51       7.21      17.47
H      21.42       9.89      16.71
H      21.33       7.52      16.55
H       3.21       4.92      19.23
H       6.69      12.17      14.96
H       5.78      11.05      19.48
H       4.86       9.16      20.59
H       5.04       7.93      13.60
H       4.12       6.05      14.70
H      17.47      -3.32      32.06
H      -7.57      20.41       2.13
H     -17.96       1.96      31.79
H      20.33       0.22      30.69
H     -10.42      16.87       3.50
H      27.86      15.13       2.40
H      16.61      -4.67      18.69
H      -6.70      21.77      15.48
H      -5.26      23.31      19.75
H      15.38      -8.85      20.58
H      -5.47      25.95      13.60
H      15.17      -6.21      14.43
H       2.49       3.48      32.59
H       7.41      13.61       1.59
H      -1.83      -1.45      31.51
H      -0.53       0.34      30.69
H      10.42      16.74       3.49
H      11.73      18.53       2.67
H      -4.17      -4.06      16.69
H      14.08      21.16      17.49
H      11.42      25.08      17.97
H      31.54      -6.78      17.74
H     -21.64      23.87      16.45
H      -1.52      -7.99      16.22
H      23.26       2.89       0.39
H     -13.36      14.21      33.78
H      -8.63      13.87      33.31
H      -6.82      15.37      33.54
H      16.72       1.73       0.63
H      18.53       3.23       0.86
H       5.07       4.14      33.91
H      18.46      27.86       1.64
H       5.88      10.91      32.60
H      13.57      22.96       3.32
H       5.06       8.76      33.18
H      14.81      24.95       2.84
H      13.14      20.49       2.72
H       7.44      12.70      32.92
H      15.92      -2.10      17.38
H      19.83       4.30      15.47
H      21.36       2.01      18.66
H      18.07      -2.40      13.77
H      19.92       0.22      18.08
H      19.16      -0.33      14.25
H      16.16      -4.02      14.38
H      22.07       4.29      18.36
H      -2.09      -3.10      14.79
H       3.31       2.44      15.05
H      -0.10       2.97      17.48
H       1.43      -4.19      16.83
H      -0.73       0.72      17.12
H       2.18      -1.93      16.76
H      -0.27      -5.94      15.97
H       1.35       4.84      17.01
H      23.06       5.16       2.28
H      25.16      12.61       2.08
H      17.45      -7.14      33.79
H      20.34       7.68       0.26
H      15.80      -8.81      34.14
H      21.93       9.46       0.34
H      19.69       5.33       1.11
H      28.22      12.13       0.13
H       4.83      12.94       0.27
H      -8.55     -10.79      32.55
H       4.04       6.17       1.58
H      -3.68      -5.88      30.86
H       4.85       8.32       1.00
H      -4.91      -7.87      31.34
H      -3.25      -3.40      31.46
H       2.48       4.37       1.26
H      -6.01      19.19      16.79
H      -9.92      12.80      18.71
H     -11.45      15.09      15.52
H      -8.16      19.49      20.41
H     -10.01      16.88      16.10
H      -9.26      17.43      19.93
H      -6.24      21.12      19.80
H     -12.17      12.80      15.82
H      11.99      20.20      19.40
H       6.59      14.65      19.13
H      10.01      14.12      16.71
H       8.48      21.29      17.34
H      10.64      16.38      17.08
H       7.73      19.02      17.42
H      10.18      23.03      18.21
H       8.56      12.26      17.17
H     -13.16      11.93      31.90
H     -15.26       4.48      32.12
H      -7.55      24.23       0.40
H     -10.44       9.42      33.92
H      -5.90      25.91       0.04
H     -12.03       7.63      33.84
H      -9.79      11.77      33.07
H     -18.31       4.97      34.08
H     -23.37      15.03      34.08
H      -6.24      33.24       1.80
H     -17.07      17.17      32.00
H       6.77       1.35       2.32
H     -19.39      17.19      32.56
H       9.12       1.26       1.95
H       4.53       0.16       2.09
H     -14.86      16.22      32.62
H      19.84      12.91      17.21
H      17.11      19.73      15.29
H     -20.95      19.44      19.26
H     -16.98      15.09      14.75
H     -19.77      17.45      18.69
H     -18.26      17.07      15.11
H      22.61      12.56      15.01
H      16.57      20.86      18.65
H       5.52       9.76      10.70
H       9.45      12.75       4.93
H       6.23      15.12       6.30
H       9.26      11.31      11.90
H       6.16      13.84       8.31
H       9.48      12.43       9.81
H       7.97       9.60      13.28
H       6.89      15.03       3.90
H      -9.08      18.20       6.40
H      -8.45      23.12      12.14
H      -4.79      21.51      10.78
H      -9.60      22.20       5.17
H      -5.85      20.80       8.77
H      -8.73      22.97       7.25
H     -10.45      20.22       3.82
H      -5.19      22.04      13.18
H      33.28       2.03       0.12
H      16.14     -16.12      32.38
H      26.97      -0.10       2.17
H       3.12      15.74      31.84
H      29.28      -0.12       1.60
H       0.77      15.85      32.20
H       5.37      16.90      32.10
H      24.76       0.88       1.55
H      -9.93       4.18      16.97
H      -7.20      -2.64      18.89
H      30.85      -2.35      14.92
H      26.89       2.01      19.43
H      29.67      -0.35      15.49
H      28.16       0.02      19.07
H     -12.70       4.53      19.17
H      -6.66      -3.76      15.53
H       4.38       7.34      23.49
H       0.44       4.33      29.24
H       3.67       1.97      27.88
H       0.65       5.78      22.27
H       3.75       3.25      25.87
H       0.43       4.65      24.36
H       1.94       7.51      20.91
H       3.01       2.05      30.28
H      18.97      -1.12      27.80
H      18.36      -6.01      22.02
H      14.70      -4.43      23.40
H      19.51      -5.12      29.00
H      15.76      -3.72      25.42
H      18.65      -5.88      26.91
H      20.34      -3.15      30.38
H      15.11      -4.94      21.00
N      17.92      30.31       0.54
N       5.62      17.09      34.06
N       4.29      -0.02       0.12
N      -8.02     -13.23      33.65
N      22.25       5.04      16.55
N     -12.65       4.85      17.21
N      22.56      12.25      16.97
N     -12.34      12.06      17.63
N       3.28       4.59      16.74
N       3.78       6.77      20.79
N       6.13      10.32      13.39
N       6.63      12.50      17.44
N      27.02      13.67       0.36
N      18.79      -1.91      30.49
N      -8.89      19.00       3.70
N     -17.12       3.42      33.83
N      16.19      -4.52      16.28
N      16.30      -6.42      20.48
N      -6.39      23.52      13.70
N      -6.28      21.62      17.89
N      12.69      20.27       0.82
N       1.12       2.34      30.79
N       8.78      14.74       3.38
N      -2.79      -3.18      33.36
N      -2.13      -5.35      16.26
N      -6.56      -4.61      17.31
N      16.46      21.71      16.87
N      12.04      22.44      17.93
N      21.13       4.01       0.82
N      14.11     -16.54      33.95
N      -4.21      33.64       0.22
N     -11.23      13.08      33.35
N       6.56       6.18      33.09
N      17.79      25.44       2.53
N      16.94       0.21      18.20
N      18.08       2.49      14.58
N      -1.55      -0.52      14.53
N       2.86      -0.11      14.42
N      25.03       6.92       2.54
N      23.17      10.94       2.70
N       3.34      10.89       1.10
N      -7.89      -8.36      31.66
N      -7.03      16.89      15.97
N      -8.17      14.61      19.60
N      11.45      17.61      19.66
N       7.04      17.21      19.76
N     -15.13      10.17      31.64
N     -13.27       6.15      31.50
N     -20.80      14.64      33.49
N      11.01      -1.02       2.74
N      18.20      14.93      17.80
N      18.27      17.54      14.35
N       5.47      10.86       8.27
N       9.61      11.14       7.03
N      -8.10      18.72       8.82
N      -9.92      22.45      10.04
N      30.71       2.44       0.71
N      -1.11      18.15      31.44
N      -8.29       2.16      16.38
N      -8.37      -0.45      19.83
N       4.42       6.23      25.92
N       0.28       5.94      27.14
N      17.99      -1.63      25.37
N      19.84      -5.34      24.13
O      17.64      26.07       3.60
O       5.84       6.06      32.06
O       7.46       5.31      33.05
O      19.02      25.21       2.36
O      18.69       2.69      13.50
O      17.20      -0.48      19.22
O      15.73       0.55      18.25
O      17.26       3.43      14.76
O       4.03      -0.24      14.86
O      -2.67      -0.41      15.09
O      -1.74      -0.76      13.31
O       2.92       0.33      13.24
O      22.48      11.89       2.26
O      25.68       6.01       1.97
O      24.91       6.63       3.76
O      23.53      11.20       3.87
O      -7.74      -9.00      30.58
O       4.07      11.02       2.12
O       2.44      11.77       1.13
O      -9.12      -8.14      31.82
O      -8.78      14.41      20.67
O      -7.30      17.57      14.95
O      -5.83      16.55      15.92
O      -7.35      13.67      19.42
O       5.87      17.34      19.31
O      12.57      17.51      19.10
O      11.63      17.86      20.88
O       6.97      16.77      20.93
O     -12.57       5.20      31.93
O     -15.78      11.08      32.21
O     -15.02      10.45      30.42
O     -13.63       5.88      30.32
O      11.47      -0.22       3.59
O     -21.25      14.68      32.31
O     -21.02      13.49      33.96
O      -8.37      31.99       3.05
O      18.73      18.34      13.50
O      18.47      14.57      18.97
O      17.32      14.16      17.34
O      17.09      17.26      14.05
O      10.81      11.51       7.03
O       4.37      11.29       8.69
O       5.32       9.67       7.90
O       9.46      10.26       6.14
O     -10.20      23.68      10.04
O      -7.17      17.98       8.41
O      -9.05      18.00       9.21
O     -10.60      21.88      10.93
O      -1.57      17.35      30.58
O      31.16       2.38       1.88
O      30.94       3.58       0.25
O      18.27     -14.86      31.14
O      -8.83      -1.24      20.69
O      -8.57       2.52      15.21
O      -7.41       2.93      16.84
O      -7.18      -0.17      20.13
O      -0.92       5.56      27.13
O       5.53       5.81      25.50
O       4.57       7.42      26.30
O       0.43       6.81      28.03
O      20.12      -6.56      24.13
O      17.06      -0.89      25.79
O      18.94      -0.90      25.00
O      20.51      -4.76      23.24
