33

H      18.54      10.39      22.87
H      16.58       8.72      20.28
N      21.56      10.75      24.19
N      20.63      10.14      22.29
N      24.03       8.72      16.39
N      22.61       9.42      17.91
N      15.84       7.68      18.55
N      17.96       8.28      18.65
H      18.56       7.49      16.71
H      15.91       6.75      16.59
C      21.63       9.79      20.10
C      21.48       9.39      18.78
C      20.27       8.92      18.28
C      19.18       8.82      19.14
C      19.29       9.22      20.47
C      20.51       9.72      20.93
C      22.92       8.42      17.05
C      24.46       9.97      16.84
C      23.58      10.41      17.79
C      21.81      10.32      22.96
C      20.18      10.84      24.33
C      19.59      10.46      23.16
C      16.75       8.28      19.30
C      17.76       7.65      17.41
C      16.45       7.28      17.37
H      22.62      10.10      20.46
H      20.19       8.67      17.22
H      18.43       9.16      21.15
H      22.41       7.46      16.98
H      25.34      10.45      16.44
H      23.56      11.31      18.39
H      22.79      10.10      22.55
H      19.75      11.15      25.28
