16

C      11.78       3.71      20.36
C      11.04       2.63      20.83
C      11.37       1.33      20.44
C      12.45       1.11      19.58
C      12.79      -0.28      19.10
C      13.21       2.19      19.13
H      11.52       4.73      20.64
H      10.19       2.80      21.50
H      10.80       0.47      20.79
H      14.06       2.01      18.47
O      13.20       5.82      19.35
O      14.71       4.48      18.30
O      12.06      -1.22      19.65
O      13.68      -0.46      18.26
C      13.68       4.67      19.00
C      12.88       3.50      19.51
