33

H      22.41      19.04      22.59
H      18.24      17.88      22.54
H      20.72      17.16      19.09
H      24.32      17.47      21.70
H      22.35      18.65      18.12
H      25.08      18.33      17.65
H      16.78      18.55      20.50
H      19.02      15.24      19.07
H      16.38      15.12      18.09
H      21.88      18.13      25.00
H      18.29      20.09      23.87
H      18.72      20.42      26.59
C      21.57      18.57      22.08
C      20.31      18.51      22.70
C      19.20      17.98      22.03
C      19.36      17.52      20.73
N      25.11      17.84      19.75
N      22.95      18.10      20.13
N      18.23      17.02      20.03
C      24.17      17.78      20.68
N      16.18      16.92      19.25
C      24.50      18.21      18.56
N      20.48      19.23      26.20
C      23.16      18.36      18.77
C      20.60      17.54      20.10
C      21.70      18.06      20.79
N      20.15      18.98      24.03
C      17.00      17.61      20.01
C      20.97      18.71      25.09
C      19.07      19.72      24.52
C      18.17      15.89      19.21
C      16.88      15.84      18.74
C      19.30      19.88      25.86
