16

C       7.80       9.69      20.20
H       9.91       9.63      18.52
C       9.67      10.64      18.81
C      10.41      11.72      18.33
C       8.59      10.86      19.68
O       6.86       9.84      21.03
C       8.27      12.17      20.08
O       8.19       8.55      19.71
H       7.45      12.35      20.76
C       9.03      13.25      19.62
H      11.24      11.55      17.65
C      10.10      13.02      18.73
H      10.67      13.87      18.38
C       8.74      14.64      20.09
O       7.82      14.88      20.90
O       9.56      15.54      19.59
