242

Y       3.57       7.65      15.69
Y      -1.22       9.36      12.24
Y      -0.13       4.21      19.58
Y       2.32       1.31      21.37
Y      -1.50      12.41       6.15
Y       3.29      10.69       9.60
Y       2.20      15.85       2.26
Y      -0.25      18.75       0.47
H      -2.51      12.21      16.81
H       3.67      14.22      12.40
H      -2.57      15.63      14.16
H      -0.59      14.43      19.30
H       1.60      14.60      19.52
H       2.73      14.58      17.31
H      -0.43       5.55      12.34
H       1.20       3.29      16.42
H       1.15       2.04      14.32
H       2.58       4.60      12.77
H       1.29       6.41       8.37
H       0.51       4.15       9.01
H      -1.21       1.04      17.16
H       2.48      17.61      18.74
H       1.47      18.21      16.59
H       2.98       0.39      17.18
H      -2.04       4.20      14.90
H       5.26       1.98      13.89
H       4.58       7.85       5.04
H      -1.60       5.84       9.45
H       4.64       4.42       7.68
H       2.67       5.63       2.55
H       0.47       5.46       2.33
H      -0.66       5.48       4.53
H       2.50      14.51       9.50
H       0.87      16.77       5.42
H       0.92      18.02       7.52
H      -0.50      15.45       9.07
H       0.78      13.65      13.47
H       1.56      15.91      12.83
H       3.28      19.02       4.68
H      -0.41       2.45       3.10
H       0.60       1.85       5.26
H      -0.91      19.67       4.66
H       4.11      15.86       6.94
H      -3.19      18.08       7.95
C      -1.82      14.86      16.75
C      -2.46      14.03      15.63
C      -2.69      12.66      15.83
C      -3.12      11.83      14.79
C       3.75      12.41      13.53
C      -3.25      13.79      13.36
C      -2.74      14.58      14.38
C       3.94      10.36      15.06
C       3.41      11.69      12.26
C      -2.43      14.55      18.13
C      -1.68      14.46      19.31
C      -2.31      14.48      20.55
C      -3.72      14.59      20.64
C       2.69      14.55      19.46
C      -3.83      14.54      18.22
C      -1.43      14.53      21.77
C       4.72      16.18       0.08
C      -0.29      14.60      16.72
C      -2.04      16.40      16.53
C       0.65       3.13      11.71
C       0.38       3.69      13.14
C      -0.08       5.02      13.23
C      -0.00       5.74      14.41
C       0.51       5.14      15.58
C       0.83       3.78      15.53
C       0.79       3.07      14.32
C      -0.51       7.15      14.47
C       0.85       6.00      16.77
C       1.41       4.25      10.99
C       2.29       4.98      11.79
C       2.69       6.26      11.45
C       2.28       6.80      10.22
C       1.59       5.98       9.33
C       1.14       4.71       9.70
C       3.51       6.97      12.49
C       2.32       8.26       9.94
C      -0.70       2.80      11.02
C       1.57       1.87      11.69
C       4.64      -0.49      15.32
C       2.07      20.28      16.69
C      -1.30       0.01      17.48
C      -0.79      -0.31      18.74
C      -3.97      19.59      19.19
C       2.53      18.64      18.40
C       1.97      18.98      17.17
C      -0.25       0.80      19.59
C      -3.28      19.09      20.42
C       4.21       0.98      15.50
C       3.44       1.21      16.65
C       3.39       2.47      17.24
C       4.07       3.55      16.67
C       4.63       3.36      15.40
C       4.72       2.09      14.83
C       2.60       2.54      18.50
C       4.40       4.79      17.45
C       5.79      -0.67      14.30
C       0.28      19.91      14.85
C       3.89       5.20       5.09
C       4.53       6.03       6.21
C       4.76       7.40       6.01
C       5.19       8.23       7.06
C      -1.68       7.65       8.31
C       5.32       6.27       8.48
C       4.81       5.48       7.46
C      -1.87       9.70       6.78
C      -1.34       8.36       9.58
C       4.50       5.50       3.71
C       3.75       5.59       2.53
C       4.38       5.58       1.29
C       5.79       5.47       1.21
C      -0.62       5.51       2.39
C       5.90       5.52       3.62
C       3.50       5.53       0.07
C      -2.65       3.88      21.76
C       2.36       5.46       5.12
C       4.12       3.66       5.31
C       1.42      16.93      10.13
C       1.69      16.36       8.70
C       2.15      15.03       8.62
C       2.07      14.32       7.43
C       1.56      14.92       6.26
C       1.24      16.27       6.32
C       1.28      16.99       7.52
C       2.58      12.91       7.37
C       1.22      14.06       5.07
C       0.66      15.81      10.86
C      -0.22      15.08      10.05
C      -0.62      13.80      10.39
C      -0.21      13.26      11.62
C       0.48      14.08      12.52
C       0.93      15.34      12.15
C      -1.44      13.09       9.35
C      -0.25      11.80      11.90
C       2.77      17.26      10.82
C       0.51      18.19      10.16
C      -2.57      20.55       6.52
C      -0.00      -0.23       5.16
C       3.37      20.05       4.36
C       2.86      20.37       3.10
C       6.04       0.47       2.66
C      -0.46       1.42       3.44
C       0.10       1.08       4.68
C       2.32      19.26       2.25
C       5.35       0.96       1.42
C      -2.14      19.08       6.34
C      -1.37      18.85       5.20
C      -1.32      17.59       4.60
C      -2.00      16.51       5.18
C      -2.56      16.70       6.44
C      -2.65      17.97       7.02
C      -0.53      17.52       3.34
C      -2.33      15.27       4.39
C      -3.72      20.73       7.55
C       1.79       0.14       7.00
O       3.46       9.94      16.18
O       4.34       9.50      14.20
O       4.19      10.76      11.86
O       2.50      12.10      11.50
O       1.00      16.87       0.24
O       0.82      14.69       0.61
O      -1.88      17.17       0.66
O       3.65      15.62       0.46
O      -1.37       7.39      15.38
O      -0.07       8.00      13.64
O       0.46       5.67      17.93
O       1.56       7.04      16.52
O       3.11       6.85      13.71
O       4.58       7.53      12.15
O       2.40       8.70       8.74
O       2.28       9.06      10.94
O      -0.45       2.00      19.22
O       0.37       0.47      20.66
O      -2.05      18.72      20.30
O      -3.92      18.90      21.51
O       1.98       3.61      18.79
O       2.55       1.46      19.18
O       4.06       5.92      17.01
O      -2.08       4.61      18.51
O      -1.39      10.12       5.66
O      -2.27      10.56       7.64
O      -2.12       9.30       9.98
O      -0.43       7.96      10.35
O       1.07       3.19      21.60
O       1.25       5.37      21.24
O       3.95       2.89      21.18
O      -1.58       4.44      21.38
O       3.45      12.67       6.46
O       2.15      12.06       8.21
O       1.61      14.39       3.91
O       0.52      13.02       5.32
O      -1.04      13.21       8.13
O      -2.51      12.53       9.69
O      -0.33      11.36      13.10
O      -0.20      11.00      10.91
O       2.52      18.05       2.62
O       1.70      19.59       1.18
O       4.12       1.34       1.54
O       5.99       1.16       0.34
O       0.09      16.45       3.05
O      -0.48      18.60       2.66
O      -1.98      14.13       4.83
O       4.15      15.45       3.33
F       0.23      14.71      15.48
F       0.41      15.49      17.50
F       0.01      13.35      17.17
F      -1.30      16.90      15.50
F      -3.35      16.66      16.24
F      -1.73      17.12      17.63
F      -1.48       3.92      10.90
F       5.73       1.91      11.74
F      -0.55       2.28       9.78
F       1.97       1.59      10.42
F       0.97       0.75      12.18
F       2.70       2.08      12.42
F      -3.97      19.31      14.34
F      -0.33       0.18      14.59
F       5.41      -0.42      13.02
F       0.61      18.66      14.42
F      -0.63      19.77      15.85
F       2.77      -0.70      13.82
F       1.84       5.35       6.37
F       1.66       4.57       4.34
F       2.06       6.70       4.67
F       3.37       3.16       6.34
F       5.42       3.40       5.60
F       3.80       2.94       4.21
F       3.55      16.14      10.94
F      -3.66      18.15      10.10
F       2.62      17.77      12.07
F       0.11      18.47      11.42
F       1.10      19.31       9.67
F      -0.63      17.98       9.42
F       6.04       0.75       7.50
F       2.40      19.88       7.25
F      -3.34      20.48       8.82
F       1.46       1.39       7.42
F       2.70       0.29       5.99
F      -0.70      20.76       8.02
