84

Mg       3.33       0.12      11.22
Mg       1.04      -0.81      12.42
Mg      -1.24       0.69      12.62
Mg      -1.04      10.35       6.91
Mg       1.24      11.28       5.71
Mg       3.52       9.77       5.50
H       3.41       3.64      10.45
H       1.27       3.28       9.03
H      -0.07       5.03       8.11
H       1.13      -3.24       9.75
H      -1.01      -4.29      10.77
H       2.22      14.97       9.72
H      -1.16      -0.40      16.06
H       3.55       1.00      16.46
H       4.50      11.40       0.30
H      -1.13       6.83       7.68
H       1.01       7.18       9.10
H       2.35       5.44      10.02
H       1.16      13.70       8.38
H       3.30      14.75       7.36
H       0.07      -4.51       8.41
H       3.44      10.87       2.07
H      -1.27       9.46       1.67
H      -2.22      -0.93      17.82
C       0.67       1.32      11.04
C      -0.25       2.37      10.50
C      -1.63       2.45      10.82
C       4.44       3.61      10.12
C      -1.89       4.59       9.24
C      -0.55       4.40       8.84
C       0.24       3.37       9.38
C      -1.61      -1.56      11.46
C       4.32      -2.56      10.83
C       2.93      -2.32      10.59
C       2.15      -3.50       9.94
C       2.68      -4.76       9.53
C       4.02      -5.01       9.90
C       4.81      -4.03      10.52
C       2.95       0.24      13.75
C       2.04       0.19      14.93
C       0.65      -0.13      14.84
C      -0.13      -0.11      16.19
C       0.40       0.17      17.48
C       1.74       0.61      17.52
C       2.52       0.66      16.36
C       1.61       9.14       7.08
C       2.53       8.10       7.63
C       3.92       8.01       7.31
C      -2.15       6.86       8.00
C       4.17       5.88       8.89
C       2.83       6.07       9.29
C       2.04       7.10       8.75
C       3.90      12.03       6.67
C      -2.04      13.03       7.30
C      -0.65      12.79       7.54
C       0.13      13.97       8.19
C      -0.40      15.22       8.60
C      -1.74      15.47       8.23
C      -2.52      14.50       7.61
C      -0.67      10.23       4.38
C       0.25      10.27       3.20
C       1.63      10.60       3.29
C       2.41      10.57       1.94
C       1.89      10.30       0.65
C       0.55       9.86       0.61
C      -0.24       9.81       1.77
O       1.91       1.33      10.68
O       0.25       0.43      11.83
O      -2.29       1.61      11.74
O      -0.37      -1.88      11.63
O      -2.04      -0.43      11.84
O       2.28      -1.10      10.86
O      -2.65       0.55      13.94
O       2.53       0.00      12.58
O      -0.01      -0.51      13.65
O       0.37       9.13       7.45
O       2.04      10.04       6.29
O       4.57       8.86       6.38
O       2.65      12.35       6.50
O       4.32      10.90       6.29
O       0.01      11.57       7.27
O       4.94       9.92       4.19
O      -0.25      10.46       5.55
O       2.29      10.98       4.48
