14

Zn       8.27       8.27       1.32
Zn       8.27       8.27      -1.32
C       6.19       6.82      -0.47
C       6.82      10.37       0.47
O       9.37       6.66      -0.66
C      10.38       9.71      -0.47
O       9.38       6.68       1.61
O       7.16       9.88       1.62
O       6.67       7.16       0.66
O       6.68       7.16      -1.61
O       9.90       9.37       0.66
O       9.89       9.36      -1.61
O       7.16       9.89      -0.66
C       9.72       6.18       0.47
