22

H      -0.08      10.55       5.19
H       0.02       9.20       3.31
H      -4.15       9.52       7.14
H      -5.89       8.13       6.63
H      -5.87       6.91       4.65
H      -4.10       7.04       3.23
C      -1.96      11.06       6.90
C      -1.75       7.74       2.10
C      -1.93      10.06       5.77
C      -0.81      10.03       4.97
C      -0.76       9.22       3.81
C      -1.84       8.46       3.43
C      -3.00       8.41       4.27
C      -3.03       9.19       5.46
C      -4.13       9.04       6.34
C      -5.17       8.21       6.04
C      -5.15       7.46       4.86
C      -4.10       7.55       4.00
O      -0.87      11.30       7.48
O      -3.05      11.63       7.14
O      -0.62       7.32       1.75
O      -2.80       7.65       1.41
