22

H      -0.22       8.67      13.85
H      -0.13      10.01      11.96
H      -4.29       9.70      15.79
H      -6.03      11.08      15.28
H      -6.01      12.31      13.31
H      -4.24      12.18      11.88
C      -2.10       8.15      15.55
C      -1.89      11.47      10.76
C      -2.07       9.16      14.42
C      -0.95       9.19      13.62
C      -0.90       9.99      12.47
C      -1.98      10.75      12.08
C      -3.14      10.81      12.92
C      -3.17      10.03      14.12
C      -4.27      10.18      15.00
C      -5.31      11.01      14.70
C      -5.30      11.75      13.51
C      -4.24      11.67      12.66
O      -1.01       7.92      16.13
O      -3.19       7.59      15.80
O      -0.76      11.90      10.40
O      -2.94      11.57      10.07
