390

C       4.31     -12.57      22.50
C      13.88       0.39       1.31
C      -5.28      12.26      23.12
C      -4.51      12.48       0.80
C      22.68      14.23       0.48
C     -13.51       0.84      23.02
C       3.44       6.85      10.90
C       5.60       5.93      11.25
C       5.03       8.02      12.23
C      -3.94      -6.75      12.74
C      14.67      20.14      10.44
C      13.09      19.57      12.12
C      18.67      25.76       0.36
C      -0.51       0.93       0.99
C       9.08      13.89      22.18
C       9.87      -5.54      11.21
C       8.28      -6.69      12.55
C       0.86      19.51      12.22
C      17.82       6.04      11.39
C      -8.79       6.80      10.76
C      -9.35       6.60      13.06
C      10.43      14.40       0.54
C       0.29      -1.04      22.68
C      -1.30       0.70      23.01
C       5.25      -5.74      14.41
C       3.88      -5.57      14.14
C       2.93      -5.81      15.15
C       3.32      -6.24      16.44
C       4.71      -6.22      16.75
C       5.66      -6.01      15.74
C       2.37      -5.56      18.78
C       2.90      -5.79      20.07
C       2.81      -4.81      21.08
C       2.19      -3.58      20.81
C       1.81      -3.28      19.48
C       1.92      -4.25      18.47
C       0.70      -6.91      17.03
C       2.60      -8.25      18.20
C       1.88      -8.74      19.32
C       2.28      -9.91      19.97
C       3.37     -10.67      19.49
C       3.97     -10.29      18.27
C       3.59      -9.10      17.63
C       0.48      -7.75      15.91
C      -0.76      -7.76      15.26
C      -1.84      -6.99      15.75
C      -1.68      -6.29      16.97
C      -0.42      -6.26      17.60
C      -5.71      15.38      20.25
C      -3.02      -6.87      14.99
C       1.89      -2.67      21.85
C       6.21      -5.72      13.37
C      -1.48       2.82       4.00
C      -0.88       3.20       5.22
C      -1.27       4.39       5.86
C      -2.26       5.23       5.28
C      -2.98       4.74       4.16
C      -2.57       3.57       3.52
C      -4.16       6.58       6.45
C      -5.29       7.23       5.88
C      -6.54       7.20       6.52
C      -6.69       6.52       7.74
C      -5.62       5.75       8.23
C      -4.38       5.75       7.58
C      -1.53       7.26       7.03
C      -2.50       7.93       4.69
C      -2.94       9.24       4.99
C      -3.05      10.20       3.98
C      -2.65       9.91       2.66
C      -2.04       8.67       2.39
C      -1.96       7.69       3.40
C      -0.15       7.27       6.72
C       0.80       7.50       7.72
C       0.40       7.77       9.04
C      -0.97       7.94       9.32
C      -1.93       7.69       8.32
C      -2.93      10.82       1.62
C       1.36       7.80      10.08
C      20.90       6.65       8.51
C      -0.96       1.75       3.24
C      14.79       3.96      11.26
C      13.42       4.11      11.54
C      12.46       3.36      10.83
C      12.86       2.46       9.81
C      14.24       2.19       9.67
C      15.19       2.95      10.36
C      11.90       0.10       9.22
C      12.44      -0.90       8.38
C      12.36      -2.26       8.72
C      11.74      -2.64       9.93
C      11.34      -1.65      10.84
C      11.45      -0.29      10.51
C      10.24       2.30       8.93
C      12.14       1.96       7.18
C      11.43       1.23       6.20
C      11.83       1.25       4.86
C      12.92       2.05       4.45
C      13.52       2.92       5.39
C      13.13       2.87       6.74
C      10.02       3.69       8.77
C       8.78       4.26       9.09
C       7.70       3.45       9.52
C       7.86       2.05       9.50
C       9.11       1.48       9.21
C      13.44       1.92       3.14
C       6.52       4.05      10.01
C      11.46      -4.00      10.20
C      15.75       4.84      11.81
C      17.74      22.21       0.50
C      18.34      20.96       0.21
C      17.96      19.82       0.93
C      16.97      19.88       1.95
C      16.25      21.10       2.09
C      16.65      22.25       1.40
C      15.08      18.19       2.53
C      13.95      18.36       3.38
C      12.70      17.83       3.04
C      12.54      17.12       1.83
C      13.61      17.08       0.91
C      14.85      17.64       1.25
C      17.70      17.36       2.82
C      16.74      19.04       4.57
C      16.30      18.12       5.56
C      16.19      18.50       6.90
C      16.57      19.80       7.31
C      17.19      20.66       6.37
C      17.27      20.27       5.02
C      19.09      17.62       2.98
C      20.04      16.64       2.66
C      19.64      15.36       2.22
C      18.27      15.04       2.24
C      17.31      16.02       2.54
C      16.27      20.24       8.61
C      20.60      14.45       1.72
C      11.35      16.40       1.56
C       8.66       9.84      23.44
C      -4.33       1.85      21.25
C      -5.70       1.52      21.25
C      -6.66       2.51      20.96
C      -6.27       3.84      20.68
C      -4.89       4.11      20.51
C      -3.93       3.13      20.82
C      -7.25       5.51      18.93
C      -6.72       6.75      18.48
C      -6.82       7.12      17.12
C      -7.45       6.26      16.20
C      -7.84       4.97      16.62
C      -7.71       4.59      17.96
C      -8.89       4.67      21.00
C      -6.99       6.37      21.55
C      -7.71       7.58      21.41
C      -7.31       8.74      22.09
C      -6.22       8.70      22.99
C      -5.61       7.46      23.27
C      -6.00       6.31      22.56
C      -9.09       4.12      22.29
C     -10.33       3.56      22.64
C     -11.41       3.59      21.74
C     -11.27       4.30      20.53
C     -10.03       4.83      20.17
C       3.88      23.47       0.04
C     -12.59       2.86      22.03
C      -7.75       6.70      14.89
C      -3.36       0.94      21.75
C       8.14      15.56      19.04
C       8.74      16.43      18.11
C       8.36      16.39      16.76
C       7.37      15.49      16.30
C       6.64      14.76      17.28
C       7.05      14.77      18.62
C       5.47      15.86      14.55
C       4.34      15.05      14.27
C       3.09      15.63      13.98
C       2.95      17.03      13.97
C       4.03      17.83      14.40
C       5.27      17.25      14.71
C       8.10      16.00      13.68
C       7.11      13.65      14.25
C       6.66      13.27      12.96
C       6.54      11.91      12.62
C       6.92      10.90      13.53
C       7.54      11.28      14.74
C       7.64      12.63      15.09
C       9.48      15.71      13.83
C      10.44      16.47      13.14
C      10.05      17.49      12.24
C       8.68      17.65      11.96
C       7.71      16.91      12.67
C       6.63       9.55      13.24
C      11.01      18.36      11.70
C       1.77      17.64      13.48
C      18.24     -11.69      20.35
H      13.58      -0.08       3.22
H      -5.58      10.84      21.76
H       4.03     -10.68      21.95
H      21.43      15.78       0.46
H     -11.63       1.15      22.46
H      -4.87      11.01       2.10
H       7.48       5.27      11.29
H       4.69       9.89      12.81
H       2.19       6.04       9.58
H      14.34      19.71       8.53
H      11.85      18.80      13.48
H      -2.07      -6.36      13.29
H      -0.81       2.82       1.55
H       8.78      13.43      20.27
H      18.40      24.34       1.72
H       7.03      -7.49      13.88
H       2.74      18.86      12.21
H       9.52      -3.68      10.60
H      -6.91       7.16      10.20
H      -9.68       6.16      14.97
H      16.57       5.30      10.03
H      -0.04      -2.48      21.35
H      -2.53       2.26      23.02
H      12.30      14.68       1.16
H       1.80     -10.19      20.83
H       1.13      -8.19      19.74
H      -4.84      16.29      17.88
H       4.08      -8.85      16.77
H       1.25      -8.28      15.48
H      -0.86      -8.31      14.40
H      -2.45      -5.74      17.35
H      -0.35      -5.71      18.46
H       1.57      -4.01      17.54
H       1.39      -2.37      19.25
H       3.12      -5.05      22.03
H       3.32      -6.69      20.32
H       5.05      -6.48      17.68
H       1.94      -5.71      14.90
H       3.56      -5.36      13.19
H       6.65      -6.11      15.97
H      -3.46      11.11       4.21
H      -3.30       9.48       5.92
H      -1.73       8.43       1.45
H      -1.54       6.79       3.15
H       0.19       7.01       5.78
H       1.79       7.41       7.48
H      -1.29       8.16      10.27
H      -2.91       7.79       8.57
H      -3.61       5.23       8.01
H      -5.71       5.21       9.10
H      21.46       7.76       6.13
H      -5.21       7.77       5.02
H      -3.73       5.29       3.74
H      -0.78       4.65       6.71
H      -0.10       2.66       5.61
H      25.72       3.29       2.65
H      11.35       0.64       4.19
H      10.67       0.59       6.46
H      14.30       3.52       5.11
H      13.62       3.49       7.39
H      10.79       4.32       8.53
H       8.68       5.28       9.05
H       7.09       1.44       9.79
H       9.19       0.47       9.25
H      11.10       0.40      11.18
H      10.93      -1.90      11.74
H      12.67      -2.96       8.05
H      12.86      -0.67       7.48
H      14.59       1.51       8.98
H      11.48       3.53      11.04
H      13.09       4.82      12.21
H      16.19       2.79      10.17
H      15.77      17.85       7.57
H      15.95      17.19       5.30
H     -11.28      21.60       6.64
H      17.69      20.94       4.37
H      19.43      18.55       3.23
H      21.03      16.90       2.70
H      17.95      14.11       1.95
H      16.33      15.75       2.49
H      15.62      17.53       0.57
H      13.51      16.61       0.01
H      11.93      17.89       3.71
H      14.03      18.84       4.28
H      15.50      21.19       2.78
H      18.45      18.95       0.72
H       9.53       7.34      23.04
H      16.17      23.13       1.59
H      -7.79       9.62      21.90
H      -8.47       7.68      20.73
H       4.76      20.96       0.44
H      -5.51       5.44      22.77
H      -8.32       4.02      22.95
H      -0.82      16.65       0.06
H     -12.05       4.35      19.86
H      -9.96       5.31      19.26
H      -8.06       3.66      18.23
H      -8.26       4.31      15.96
H      -6.51       8.05      16.84
H      -6.30       7.41      19.12
H      -4.55       5.04      20.26
H      -7.64       2.24      21.01
H      -6.01       0.59      21.54
H      -2.94       3.39      20.78
H       6.12      11.67      11.71
H       6.31      13.96      12.29
H       7.85      10.57      15.41
H       8.06      12.86      15.99
H       9.81      15.03      14.51
H      11.43      16.30      13.34
H       8.36      18.37      11.30
H       6.73      17.09      12.45
H       6.04      17.88      14.96
H      13.53      -8.27      14.44
H       2.32      15.03      13.69
H       4.40      14.03      14.23
H       5.89      14.12      17.02
H       8.85      17.01      16.11
H      19.12     -10.09      18.38
H       6.56      14.16      19.29
N      13.87       1.33       0.33
N       4.28      26.20       0.93
N      -5.30      13.24      22.18
N      13.68       0.69       2.62
N      -5.48      10.98      22.72
N       4.12     -11.58      21.58
N      23.03      13.03       1.01
N      14.02       1.34      23.25
N      -3.61      13.20       0.08
N      21.53      14.87       0.82
N     -12.51       1.57      22.45
N      -4.18      11.37       1.51
N       4.37       5.88      10.70
N       5.92       7.02      11.99
N       3.81       7.92      11.65
N       6.60       5.06      10.92
N       5.38       9.20      12.81
N       2.29       6.81      10.18
N     -13.21      20.46      11.42
N      13.46      19.67      10.81
N      -5.17      -7.23      13.06
N      15.03      20.06       9.13
N      11.95      18.94      12.51
N      -2.95      -6.59      13.66
N      -0.53      -0.39       1.31
N      18.64     -12.30      23.17
N       9.06      12.59      22.55
N      -0.72       1.92       1.91
N       8.88      14.19      20.87
N      18.48      24.48       0.76
N       8.64      -5.63      11.79
N      -0.38      19.47      12.77
N      10.76      -6.53      11.47
N       7.13      -6.72      13.28
N       1.85      18.66      12.57
N      10.21      -4.36      10.61
N      18.74       6.35      10.44
N      -8.46       6.89      12.07
N      18.19       6.15      12.69
N      -7.79       6.94       9.84
N      -8.99       6.51      14.37
N      16.67       5.43      11.00
N       1.17      -0.35      23.45
N      -0.93      -0.48      22.45
N       9.21      14.91       0.28
N       0.65      -2.13      21.95
N      -2.44       1.35      22.66
N      11.43      15.11       1.14
O      -4.20      -7.04      15.63
O      -5.47      14.21      19.61
O       2.88      -2.36      22.72
O       6.17      -4.69      12.50
O       1.32       8.84      10.95
O      -1.93      11.14       0.77
O      19.71       6.48       7.88
O      -0.71       0.58       3.87
O       5.34       3.58       9.55
O      13.69       3.06       2.45
O      12.46      -4.90      10.04
O      15.71       5.07      13.14
O      20.55      13.18       2.17
O     -11.51      20.86       9.31
O      10.17      17.05       1.71
O       8.89       9.88      22.11
O     -13.78       3.48      21.83
O       4.14      23.50       1.37
O      -6.76       7.31      14.19
O      -3.42      -0.34      21.30
O      10.96      18.62      10.37
O       7.61       8.64      13.43
O       0.58      17.17      13.93
O      18.49     -10.56      21.05
Si       2.25      -6.74      17.61
Si      -2.61       6.75       5.86
Si      11.78       1.71       8.79
Si      16.63      18.62       2.97
Si      -7.35       5.10      20.54
Si       7.01      15.25      14.70
