48

Eu      12.83      14.91       1.59
Eu      10.97      12.13       4.38
C      16.13      13.98       0.86
C      16.12      16.16       1.67
C      15.36      17.32       2.08
N      14.00      17.23       2.08
N      15.44      15.04       1.30
N       9.79      12.61       6.71
N       8.35      11.84       4.51
O      12.05      16.38      -0.41
O      13.40      14.66      -0.84
O      13.50      12.51       1.38
C      10.46      15.67       3.75
O      12.96      11.44       3.31
O      11.13      16.24       2.83
O      10.39      14.41       3.95
C      11.24       9.32       5.08
H      11.59      12.96       7.66
H      10.53      13.57       9.86
O      11.75      10.13       5.92
O      10.45       9.73       4.15
H       8.03      13.61      10.03
H       5.79      13.26       8.92
H       4.50      12.55       6.93
H       4.46      11.67       4.57
H       5.76      10.94       2.55
O      10.32      11.90       1.98
O      10.83      13.84       0.92
C      10.35      12.66       0.98
C      10.51      12.95       7.79
C       9.91      13.31       9.01
H       8.26      11.09       2.59
C       7.74      12.97       7.98
C       8.53      13.33       9.10
O      12.70      13.33       5.67
O      13.44      14.48       3.87
C       6.25      12.16       5.70
C       6.26      11.31       3.44
C       7.67      11.39       3.45
C       7.67      12.20       5.63
C       8.43      12.61       6.79
C       6.31      12.96       8.01
C       5.59      12.56       6.91
C       5.55      11.71       4.56
C      13.37      14.26       5.12
C      12.58      15.56      -1.23
C      13.45      11.50       2.14
C      13.29      18.31       2.42
