53

Si       9.77      -0.00       1.04
H      10.55      -1.35       3.54
H      12.44      -1.08       5.14
H      14.12       1.98       2.63
H      12.26       1.70       1.01
H       8.35      -0.83      -1.43
H       8.60      -2.73      -2.99
H      11.75      -4.36      -0.56
H      11.52      -2.44       1.02
H       8.98       1.37       3.53
H       7.09       1.10       5.13
H       5.41      -1.96       2.64
H       7.27      -1.70       1.01
H      11.18       0.82      -1.43
H      10.93       2.72      -2.99
H       7.79       4.36      -0.56
H       8.01       2.44       1.02
C      11.26       0.16       2.15
C      11.34      -0.64       3.32
C      12.39      -0.48       4.23
C      13.38       0.48       3.98
C      13.34       1.25       2.81
C      12.29       1.08       1.90
C      14.46       0.74       5.00
C       9.92      -1.49      -0.09
C       9.09      -1.60      -1.22
C       9.23      -2.66      -2.11
C      10.20      -3.65      -1.88
C      11.01      -3.58      -0.73
C      10.87      -2.51       0.15
C      10.38      -4.77      -2.84
C       8.27      -0.15       2.15
C       8.19       0.65       3.32
C       7.14       0.50       4.22
C       6.15      -0.46       3.98
C       6.19      -1.23       2.81
C       7.24      -1.07       1.90
C       5.07      -0.71       5.00
C       9.61       1.49      -0.09
C      10.44       1.59      -1.22
C      10.30       2.65      -2.11
C       9.33       3.64      -1.88
C       8.52       3.57      -0.73
C       8.66       2.50       0.15
C       9.15       4.75      -2.84
O      14.57      -0.10       5.95
O      15.17       1.79       4.82
O       9.74      -4.73      -3.99
O      11.08      -5.77      -2.53
O       4.97       0.13       5.95
O       4.35      -1.76       4.82
O       9.78       4.71      -4.00
O       8.46       5.76      -2.53
