50

La      12.65       2.05      10.23
La      12.98      -1.00      14.55
Zn      13.84       4.25       2.47
Zn      12.36       8.20       9.92
C      13.98       5.83      10.83
C      12.52       5.43      10.99
C      15.10       3.69      11.87
C      13.71       4.06       5.38
C      12.92       2.89       4.82
C      14.95       5.98       4.90
C      15.36       7.57      10.06
C      13.88       4.24       6.75
C      14.38      -0.66      11.23
C       9.64       8.63      11.19
C      13.31       3.29       7.77
C      10.11      10.17       9.51
C      12.22       6.61       1.56
C      13.11      -4.38      13.79
C      10.53      -2.64      12.91
C      12.49       8.39       7.01
C      13.28       9.56       7.57
C      11.25       6.47       7.49
C      10.84       4.87       2.34
C      11.75      -3.19      18.03
C      11.25       1.71      13.55
C      16.56       3.81       1.20
C      12.33      -2.24      17.01
C      16.09       2.28       2.88
N      14.25       4.91       4.48
N      10.46       9.07      10.21
N      14.14       7.07      10.30
N      11.95       7.53       7.91
N      15.74       3.37       2.18
N      12.06       5.38       2.09
O      14.14      -0.55      12.47
O      12.18       3.57       8.32
O      14.06       2.34       8.19
O      11.65       6.33      10.82
O      12.90       2.79       3.53
O      14.65       2.69      11.21
O      13.69      -0.14      10.30
O      12.25       4.22      11.29
O      11.49       1.60      12.31
O      13.45      -2.52      16.46
O      11.58      -1.29      16.59
O      14.55       6.12       1.57
O      13.30       9.66       8.86
O      10.98      -1.64      13.57
O      11.94       1.19      14.48
O      13.38      -3.17      13.49
