118

Cd       5.60       6.08      16.21
Cd       0.53       0.78       8.79
Cd      -0.53       1.82       0.46
Cd       4.54       7.12       7.89
Cd       7.64       5.00       0.00
Cd       2.54       3.95       8.34
H       3.69       3.78      12.42
H       7.30       1.98      13.89
H       3.35       1.86      10.91
H       6.95       0.04      12.44
H       2.67      -0.17      10.88
H       6.89      -0.99      10.43
H      -1.10       6.40       8.64
H      -1.42       3.09      12.57
H       2.21       4.86      11.11
H      -1.73       5.00      14.10
H       1.88       6.80      12.57
H      -2.40       7.03      14.13
H       1.82       7.85      14.57
H       3.97       0.44      16.39
H       1.39       4.12       4.25
H      -2.22       5.92       2.78
H       1.73       6.04       5.77
H      -1.88       7.86       4.24
H       2.41       8.07       5.80
H      -1.81       8.89       6.25
H       6.18       1.50       8.04
H       6.49       4.81       4.11
H       2.86       3.04       5.56
H       6.81       2.90       2.57
H       3.19       1.10       4.10
H       7.48       0.87       2.54
H       3.26       0.05       2.10
H       1.10       7.46       0.29
C       5.61       4.17      14.20
C       5.50       3.01      13.27
C       4.40       2.96      12.41
C       6.43       1.96      13.25
C       4.20       1.87      11.58
C       6.24       0.86      12.41
C       5.10       0.78      11.58
C       4.82      -0.41      10.76
C       3.49      -0.76      10.47
C       5.84      -1.24      10.25
C      -1.89       8.11       9.69
C       0.47       7.61       9.52
C      -0.86       7.29       9.23
C      -3.30       7.82       9.29
C       1.55       6.68       9.06
C       0.51       2.70      10.79
C       0.41       3.85      11.73
C      -0.70       3.90      12.59
C       1.34       4.89      11.76
C      -0.88       4.99      13.43
C       1.16       5.99      12.60
C       0.02       6.07      13.43
C      -0.25       7.27      14.25
C      -1.58       7.62      14.54
C       0.77       8.09      14.75
C       3.18      -1.26      15.33
C       5.54      -0.75      15.50
C       4.21      -0.43      15.79
C       1.77      -0.97      15.73
C       6.62       0.18      15.95
C      -0.53       3.74       2.48
C      -0.43       4.89       3.41
C       0.68       4.94       4.27
C      -1.35       5.94       3.43
C       0.87       6.04       5.10
C      -1.16       7.04       4.26
C      -0.03       7.12       5.10
C       0.26       8.32       5.92
C       1.59       8.66       6.20
C      -0.77       9.14       6.42
C       6.97      -0.21       6.98
C       4.61       0.30       7.16
C       5.94       0.62       7.45
C       8.37       0.08       7.38
C       3.53       1.23       7.61
C       4.56       5.20       5.89
C       4.67       4.06       4.95
C       5.78       4.00       4.09
C       3.73       3.01       4.92
C       5.96       2.91       3.25
C       3.92       1.91       4.08
C       5.05       1.83       3.25
C       5.33       0.63       2.42
C       6.66       0.28       2.13
C       4.30      -0.19       1.92
C       1.90       9.16       1.35
C      -0.46       8.65       1.18
C       0.87       8.34       0.88
C       3.30       8.87       0.95
C      -1.54       7.72       0.72
O       6.52       4.16      15.15
O       4.84       5.15      14.10
O       0.84      -1.82      15.48
O       3.55       7.78       0.34
O      -2.76       8.00       0.99
O       6.22       1.25      16.54
O       1.45       2.69       9.87
O      -0.28       1.73      10.86
O      -4.23       8.67       9.53
O       8.62       1.17       7.99
O       2.31       0.95       7.35
O       1.15       5.61       8.48
O      -1.44       3.74       1.53
O       0.24       2.75       2.58
O       4.24       9.72       1.19
O       1.52       0.12      16.34
O       7.84      -0.09      15.69
O      -1.14       6.65       0.14
O       3.63       5.21       6.81
O       5.36       6.17       5.81
O       9.31      -0.77       7.14
O      -3.55       6.73       8.69
O       2.77       6.95       9.33
O       3.93       2.30       8.20
