24

O       0.45       2.76      18.49
O       0.34       3.45      20.65
O       6.45       3.04      18.58
O       6.16       3.36      20.82
H       3.38       2.62      18.91
H       3.35       3.17      20.60
H       5.45       6.29      19.91
H       4.64       5.41      21.22
H       2.02       5.31      21.21
H       1.13       6.17      19.95
O       3.61       8.83      20.11
O       2.95       7.69      21.93
H       2.08       4.62      18.21
H       3.29       6.76      18.82
H       4.64       4.64      18.24
C       0.85       3.45      19.47
C       2.07       4.33      19.27
C       3.35       3.51      19.55
C       4.61       4.38      19.31
C       5.84       3.53      19.58
C       4.58       5.66      20.15
C       3.28       6.46      19.87
C       3.25       7.71      20.73
C       2.04       5.59      20.15
