22

Gd      -1.59      -5.47      17.53
Gd       0.47      -7.90      15.52
C      -0.02      -5.32      14.31
C      -1.16      -8.08      18.70
O       0.63      -5.28      18.11
O       1.90      -6.56      16.74
O      -3.01      -6.82      16.28
O      -1.75      -8.05      14.86
O      -1.47      -3.17      18.15
O      -3.38      -3.91      17.26
C       1.75      -5.75      17.72
O       0.62     -10.12      14.69
O       2.17      -9.46      16.15
O      -0.58      -5.45      15.47
O       0.71      -6.26      13.84
O      -1.78      -7.10      19.24
O      -0.60      -7.93      17.55
C      -2.87      -7.55      15.24
C      -2.62      -2.93      17.63
C      -3.04      -1.53      17.38
C       2.06     -11.80      15.63
C       1.60     -10.40      15.47
