22

Gd       9.42       1.23      12.35
Gd       6.41       2.25      14.37
C      12.17       1.19      12.26
C      13.62       1.32      12.50
C       2.20       2.29      14.25
C       3.67       2.38      14.42
C       9.00       2.74      15.58
O       8.79       3.35      11.75
O       7.16       4.07      13.14
O       8.68      -0.59      13.58
O       7.07       0.12      15.01
O      11.53       2.15      11.69
O      11.53       0.14      12.67
O       4.29       1.55      15.19
O       4.33       3.27      13.76
O       9.07       2.17      14.42
C       6.83       0.67      11.18
O       7.86       3.07      16.05
O       7.97       0.44      10.65
O       6.76       1.26      12.33
C       7.95       4.23      12.16
C       7.95      -0.73      14.62
