36

Cd       4.11       4.28      11.07
Cd       4.35       4.25       3.69
Cd      -0.04       4.37       0.00
Cd       4.27      -0.10       7.38
H       0.59       1.46      14.07
H       7.67       1.48      14.02
H       8.65       1.51       0.71
H       6.90       7.83       8.07
H       6.94       0.75       8.13
H       7.12      -0.02       6.68
H       7.87       7.07       0.69
H       0.79       7.05       0.75
H      -0.19       7.02      14.06
H       1.56       0.70       6.69
H       1.52       7.78       6.63
H       1.34       8.56       8.09
C       2.29       4.26      12.35
C       4.14       2.50       9.74
C       4.11       6.10       9.79
C       5.89       4.27      12.41
C       6.17       4.27       2.41
C       4.32       6.03       5.03
C       4.34       2.43       4.97
C       2.57       4.26       2.36
N       1.38       4.26      13.09
N       1.67       4.27       1.60
N       8.48       1.77      14.56
N       4.11       7.01       9.06
N       4.30       6.93       5.78
N       6.66      -0.06       7.59
N       7.08       4.27       1.68
N       6.79       4.27      13.16
N      -0.02       6.76       0.20
N       4.35       1.52       5.71
N       4.15       1.61       8.98
N       1.80       8.60       7.18
