16

V       2.47      -5.62      20.55
V       6.10      -5.90      20.69
C       4.48      -3.43      21.52
C       0.89      -8.08      19.72
C       4.52      -5.06      18.23
C       0.89      -6.46      23.01
O       5.69      -5.29      18.83
O       2.06      -6.23      22.41
O       3.27      -3.90      21.28
O      -0.32      -7.61      19.96
O       3.30      -5.14      18.77
O      -0.33      -6.37      22.47
O       2.06      -7.47      19.88
O       5.64      -4.04      21.36
O       4.46      -6.52      20.99
O       0.82      -4.99      20.25
