62

C       9.79       0.50      14.63
C       9.13       1.68      15.05
C       8.71       2.67      14.13
C       8.93       2.43      12.75
C       9.57       1.26      12.29
C       0.02       0.31      13.24
C       0.25      14.63       0.50
C       0.91      15.05       1.68
C       1.33      14.13       2.67
C       1.10      12.75       2.43
C       0.46      12.29       1.26
C       0.04      13.24       0.31
C       0.30      10.81       1.11
C       1.98      14.59       3.92
C       9.74       1.11      10.81
C       8.05       3.92      14.59
C       9.52      14.80       8.02
C       9.68      14.91       6.62
C       0.95       0.17       6.08
C       2.05       0.36       6.95
C       1.90       0.23       8.34
C       0.63      15.01       8.89
C       7.99       6.95       0.36
C       8.14       8.34       0.23
C       9.40       8.89      15.01
C       0.51       8.02      14.80
C       0.36       6.62      14.91
C       9.09       6.08       0.17
H       8.94       1.83       0.95
H       0.51      14.57      12.92
H       8.63       3.14      12.07
H       1.10       0.95       1.83
H       1.41      12.07       3.14
H       9.52      12.92      14.57
H       1.30      10.37       1.15
H       9.73      10.47       1.99
H       2.89       0.04       3.66
H       2.29      13.73       4.53
H       0.31       1.99      10.47
H       8.74       1.15      10.37
H       7.14       3.66       0.04
H       7.74       4.53      13.73
H       2.96       0.63       6.56
H       8.60      14.58       8.40
H       8.62      13.83       5.49
H       2.99       1.40       9.35
H       1.24       1.36       4.49
H       9.95      14.15      10.58
H       1.44       8.40      14.58
H       7.08       6.56       0.63
H       7.05       9.35       1.40
H       1.41       5.49      13.83
H       0.09      10.58      14.15
H       8.79       4.49       1.36
N       1.05       0.37       4.68
N       0.47      15.00      10.30
N       9.57      10.30      15.00
N       8.99       4.68       0.37
O       8.59      14.75       5.83
O       2.97       0.44       9.15
O       7.07       9.15       0.44
O       1.45       5.83      14.75
