800

Cu      -2.48      -2.44      11.41
Cu      -2.45       8.01      22.85
Cu       8.03       7.99      11.46
Cu      18.49       8.04       0.02
H      -1.58       3.24      17.88
H      -5.77       3.79      17.30
H      -8.71       4.53      21.61
H      12.31       7.71      18.72
H      -6.43       8.24      17.57
H      -5.26       6.91      17.40
H      -6.84       6.78      16.64
H      -6.93       3.01      21.77
H      -6.25       2.67      20.16
H      -5.29       3.57      21.33
H      10.32       7.35      20.01
H      10.11       5.80      20.86
H      10.85       7.17      21.70
H       1.84       6.28      18.98
H       0.57       4.76      22.79
H      -1.34       3.17      22.72
H      -2.33       4.63      22.81
H      -2.65       3.43      21.54
H       3.45       6.14      20.84
H       2.50       7.16      21.94
H       2.94       5.51      22.43
H      -1.39       6.22      17.39
H       0.35       6.55      17.22
H      -0.28       4.93      16.95
H      -1.55       2.43      16.03
H      12.80      -2.20      14.80
H      11.76       1.39      12.70
H      13.18       3.26      12.70
H      14.13       3.38      14.21
H      14.93       2.93      12.72
H      -6.28      -2.18      16.27
H      -4.96      -1.98      15.11
H      -5.22      -0.76      16.37
H      10.11      -0.38      12.92
H      10.99      -1.82      12.38
H      10.40      -1.72      14.04
H       1.07       1.26      11.68
H       0.74      -2.10      14.32
H      -2.15       2.81      12.75
H      -0.51       3.46      12.90
H      -0.99       2.67      11.40
H       2.79      -0.45      11.63
H       3.01      -1.41      13.12
H       2.02      -2.04      11.80
H      -2.59      -1.41      15.45
H      -1.13      -2.38      15.72
H      -1.37      -0.85      16.60
H       2.42      17.68       6.73
H       2.36       1.01       6.62
H       1.64       4.28      10.08
H      -2.05       3.47       8.02
H      -0.87       0.31       6.55
H      -2.12       0.29       7.80
H      -2.15       1.54       6.57
H       3.22       2.53      10.45
H       2.92       0.86       9.91
H       3.56       2.06       8.79
H       0.02       6.07       9.79
H      -1.30       5.87       8.61
H      -1.53       5.35      10.28
H      -2.41      17.12       7.12
H      -1.97      -2.42       8.05
H      -1.01      -2.84       6.63
H      -2.07      15.28       8.56
H       1.81      14.52      10.20
H       3.41      -4.69      10.46
H       3.64      16.70       8.76
H       3.07      -3.05       9.87
H      -1.67      13.16       9.54
H       0.00      12.59       9.36
H      -0.55      13.20      10.92
H       3.99       0.95       5.46
H       3.19      17.72       4.93
H       4.80      15.44       0.16
H       6.20      14.22       4.03
H       5.44      17.40       5.76
H       5.55      15.65       5.98
H       6.96      16.56       5.44
H       3.17      17.37       0.22
H       3.54      18.73       1.30
H       4.67      18.27       0.01
H       5.53      13.09       0.53
H       7.13      13.37       1.27
H       5.87      12.53       2.19
H       7.75       3.77       4.35
H       4.90       3.75       1.15
H       8.23       1.62       5.53
H       7.02       0.31       5.50
H       6.67       1.82       6.34
H       3.09       0.90       2.32
H       3.31       2.01       0.95
H       4.18       0.46       0.99
H       6.09       5.81       1.68
H       7.12       5.91       3.13
H       7.76       5.22       1.63
H      13.72      -1.59       6.44
H      14.26      15.20       5.88
H      15.00      12.28      10.18
H      -2.80      12.32       7.29
H      -2.27      14.55       6.15
H      17.38      15.73       5.98
H      17.25      14.16       5.21
H      13.48      14.05      10.35
H      13.13      14.73       8.74
H      14.03      15.69       9.90
H      -3.17      10.33       8.57
H      16.26      10.12       9.43
H      -3.34      10.86      10.26
H      16.76       1.84       7.54
H      15.25       0.58      11.35
H      13.68      -1.33      11.30
H      15.13      -2.33      11.36
H      13.90      -2.64      10.11
H      16.61       3.45       9.39
H      -3.35       2.52      10.52
H      -5.01       2.97      10.97
H      16.71      -1.39       5.95
H      17.04       0.36       5.79
H      15.41      -0.27       5.51
H      13.03      -1.57       4.51
H       8.28      12.79       3.36
H      11.88      11.78       1.26
H      13.74      13.21       1.28
H      13.84      14.16       2.79
H      13.39      14.96       1.30
H       8.28      14.67       4.83
H       8.49      16.01       3.70
H       9.70      15.73       4.96
H      10.12      10.11       1.47
H       8.68      10.99       0.92
H       8.76      10.40       2.59
H      11.75       1.07       0.24
H       8.41       0.73       2.90
H      13.27      18.84       1.30
H      13.97      -0.51       1.46
H       2.68       9.51      22.83
H      10.03       2.78       0.20
H       9.07       2.99       1.69
H       8.44       2.00       0.37
H       9.13      18.39       4.08
H       8.15      -1.16       4.30
H       9.68      -1.33       5.19
H      -3.28      -8.06      18.17
H       1.03      -8.14      18.06
H       4.30      -8.85      21.52
H       3.47       8.45      19.45
H       0.30       9.63      17.99
H       0.28       8.37      19.24
H       1.53       8.34      18.00
H       2.55      -7.28      21.90
H       0.87      -7.59      21.36
H       2.07      -6.94      20.23
H       6.06      10.52      21.22
H       5.86       9.20      20.04
H       5.34       8.97      21.72
H      -3.87       8.10      18.56
H      -2.43       8.51      19.50
H      -2.85       9.47      18.07
H      -5.72       8.44      20.00
H      -6.44      -8.66      21.64
H      -4.66      -7.11      21.92
H      -4.27      -6.84      20.21
H      -3.02      -7.44      21.31
H      -7.83       8.84      20.98
H      -8.41      10.52      20.79
H      -7.80       9.96      22.36
H       0.96      -6.49      16.91
H      -3.25      -7.28      16.37
H      15.40      15.31      11.61
H      -6.75      -4.27      15.47
H      -3.57      -5.04      17.20
H      -5.33      -4.90      17.42
H      -4.38      -3.51      16.88
H      -3.63      13.66      11.68
H      -2.27      14.05      12.76
H      -2.74      15.16      11.46
H      13.10      -4.93      11.97
H      13.38      -3.34      12.71
H      12.53      -4.60      13.62
H       3.79      -2.74      15.80
H       3.76      -5.59      12.59
H       1.62      -2.27      16.98
H       0.32      -3.49      16.95
H       1.84      -3.83      17.78
H       0.88      13.59      13.76
H       1.99      13.81      12.39
H       0.44      14.67      12.43
H       5.82      -4.38      13.11
H       5.91      -3.35      14.56
H       5.21      -2.71      13.07
H      13.70       8.90       4.99
H      14.29       4.71       5.57
H      15.02       1.78       1.26
H      18.19       1.82       4.16
H      -2.25       4.05       5.30
H      17.40       5.24       5.46
H      17.27       3.66       6.24
H      13.49       3.56       1.09
H      13.16       4.24       2.70
H      14.06       5.20       1.53
H      17.83      -0.17       2.87
H      16.28      -0.38       2.02
H      17.65       0.36       1.18
H      16.74      12.33       3.90
H      15.25      11.05       0.08
H      13.65       9.16       0.15
H      15.11       8.17       0.06
H      13.91       7.83       1.32
H      16.63      13.93       2.05
H      17.61      13.00       0.90
H      15.95      13.46       0.48
H      16.69       9.11       5.50
H      17.00      10.86       5.66
H      15.39      10.22       5.93
H      13.02       8.92       6.92
H       8.29       2.29       8.07
H      11.88       1.30      10.19
H      13.74       2.73      10.18
H      13.86       3.67       8.66
H      13.39       4.48      10.15
H       8.29       4.18       6.59
H       8.50       5.52       7.73
H       9.72       5.23       6.47
H      10.12      -0.37       9.98
H       8.68       0.51      10.52
H       8.77      -0.09       8.85
H      11.73      11.56      11.20
H       8.39      11.22       8.54
H      13.29       8.34      10.13
H      13.95       9.98       9.96
H      13.16       9.51      11.48
H      10.01      13.27      11.25
H       9.08      13.50       9.75
H       8.42      12.50      11.04
H       9.15       7.90       7.35
H       8.13       9.34       7.14
H       9.66       9.17       6.25
H       7.16      12.93      16.13
H      11.48      12.84      16.24
H      14.75      12.13      12.79
H      13.95       8.45      14.86
H      10.78       9.62      16.31
H      10.76       8.37      15.06
H      12.01       8.34      16.30
H      12.99      13.71      12.41
H      11.32      13.39      12.95
H      12.51      14.05      14.07
H      -4.43      10.52      13.10
H      -4.63       9.20      14.27
H      -5.15       8.98      12.59
H       6.61       8.10      15.75
H       8.05       8.52      14.82
H       7.63       9.48      16.24
H       4.76       8.44      14.32
H       4.00      12.32      12.66
H       5.79      13.88      12.39
H       6.19      14.15      14.10
H       7.43      13.55      12.99
H       2.64       8.85      13.33
H       2.07      10.52      13.51
H       2.68       9.97      11.95
H      11.45      -6.51      17.40
H       7.24      -7.28      17.93
H       4.96      -5.67      22.71
H       3.74      -4.27      18.85
H       6.94      -4.99      17.13
H       5.18      -4.96      16.89
H       6.02      -3.51      17.42
H       6.90      -7.32      22.64
H       8.26      -6.93      21.56
H       7.79      -5.81      22.86
H       2.62      -4.93      22.35
H       2.89      -3.34      21.61
H       2.05      -4.60      20.70
H      -6.72      -2.73      18.52
H      -6.71      -5.60      21.71
H      12.09      -2.26      17.36
H      10.80      -3.48      17.38
H      12.31      -3.81      16.54
H      11.41      -7.41      20.54
H      -8.44      -7.20      21.90
H     -10.00      -6.34      21.88
H      -4.66      -4.38      21.19
H      -4.57      -3.35      19.74
H      -5.27      -2.71      21.23
H       8.90       3.24      16.45
H       4.70       3.82      17.03
H       1.79       4.53      12.69
H       1.81       7.70      15.58
H       4.03       8.24      16.73
H       5.21       6.91      16.92
H       3.63       6.79      17.67
H       3.56       3.00      12.54
H       4.24       2.67      14.15
H       5.20       3.57      12.98
H      -0.18       7.33      14.29
H      -0.38       5.78      13.44
H       0.36       7.15      12.60
H      12.31       6.28      15.34
H      11.04       4.78      11.53
H       9.15       3.18      11.59
H       8.16       4.64      11.51
H       7.83       3.43      12.76
H      13.92       6.14      13.48
H      12.99       7.16      12.37
H      13.43       5.51      11.90
H       9.09       6.22      16.94
H      10.84       6.55      17.09
H      10.21       4.93      17.38
H       8.92       2.57      18.39
H       2.30      -2.19      19.54
H       1.30       1.41      21.65
H       2.73       3.26      21.64
H       3.65       3.38      20.11
H       4.49       2.92      21.59
H       4.18      -2.19      18.06
H       5.53      -1.96      19.17
H       5.22      -0.76      17.91
H      -0.37      -0.35      21.42
H       0.50      -1.79      21.98
H      -0.08      -1.71      20.31
H      -9.41       1.26      22.64
H      11.24      -2.07      19.97
H       8.33       2.79      21.60
H       9.95       3.48      21.41
H      19.98      13.17       0.05
H      -7.68      -0.44      22.67
H      -7.48      -1.41      21.19
H      -8.46      -2.03      22.51
H       7.93      -1.18      18.67
H       9.24      -2.38      18.67
H       9.36      -0.92      17.66
H       2.43       7.19       4.70
H       2.34      11.51       4.82
H       1.62      14.78       1.38
H      18.92      13.97       3.45
H      -0.89      10.81       4.89
H      18.83      10.78       3.64
H      -2.17      12.04       4.88
H       3.19      13.03       0.99
H       2.88      11.35       1.52
H       3.53      12.55       2.65
H       0.01      16.58       1.70
H      -1.32      16.36       2.87
H      19.45      15.86       1.18
H      18.57       6.63       4.32
H      18.98       8.07       3.38
H      -1.03       7.65       4.81
H      18.92       4.78       2.89
H       1.82       4.03       1.22
H       3.37       5.83       0.95
H       3.65       6.21       2.66
H       3.04       7.46       1.56
H      19.33       2.67       1.90
H       0.03       2.10       2.08
H      20.44       2.70       0.52
H       3.98      11.43       5.96
H       3.19       7.23       6.51
H       4.82       4.94      11.27
H       6.21       3.72       7.41
H       5.44       6.90       5.67
H       5.56       5.14       5.45
H       6.97       6.06       5.98
H       3.16       6.88      11.20
H       3.56       8.24      10.13
H       4.67       7.77      11.42
H       5.55       2.59      10.91
H       7.15       2.88      10.18
H       5.90       2.03       9.25
H       7.73      14.26       7.07
H       4.88      14.24      10.28
H       8.21      12.10       5.91
H       6.99      10.80       5.92
H       6.66      12.33       5.10
H       3.08      11.38       9.11
H       3.30      12.50      10.47
H       4.16      10.95      10.45
H       6.08      16.30       9.75
H       7.11      16.40       8.30
H       7.75      15.71       9.80
C      -3.34       6.83      21.56
C      -3.70       5.20      19.64
C      -2.48       4.60      19.23
C      -2.51       3.72      18.15
C      -3.68       3.46      17.42
C      -4.88       4.06      17.86
C      -4.92       4.92      18.96
C      -6.24       5.42      19.41
C      -6.92       4.70      20.43
C      -8.19       5.11      20.84
C      -8.83       6.21      20.25
C      -8.17       6.87      19.21
C      -6.90       6.48      18.76
C      -6.32       7.15      17.54
C      -6.32       3.42      20.96
C      10.79       6.66      20.73
C      -1.17       4.93      19.86
C      -0.17       5.51      19.04
C       1.07       5.84      19.61
C       1.34       5.63      20.97
C       0.37       4.99      21.74
C      -0.88       4.63      21.21
C      -1.86       3.92      22.11
C       2.63       6.13      21.58
C      -0.39       5.82      17.58
C      -3.73       2.56      16.25
C      -2.53       2.09      15.68
C      -2.54       1.17      14.63
C      -3.81       0.71      14.19
C      -5.01       1.21      14.74
C      -4.99       2.17      15.76
C      -6.33       0.62      14.34
C      -6.67      -0.67      14.78
C      13.07      -1.21      14.43
C      12.15      -0.50      13.64
C      12.48       0.80      13.26
C      13.71       1.38      13.61
C      13.99       2.82      13.28
C      -5.73      -1.44      15.68
C      10.84      -1.13      13.23
C      -0.60       1.31      13.03
C       0.56       0.74      12.49
C       1.06      -0.48      12.94
C       0.37      -1.14      13.96
C      -0.80      -0.61      14.53
C      -1.28       0.63      14.05
C      -1.10       2.63      12.49
C       2.29      -1.12      12.34
C      -1.51      -1.36      15.63
C      -3.44      -1.13      12.47
C      -1.10      -1.54      10.38
C       0.68      -1.13       8.63
C       1.17      -2.37       8.13
C       2.09      -2.34       7.09
C       2.55      -1.15       6.51
C       2.06       0.06       7.04
C       1.14       0.10       8.09
C       0.63       1.43       8.52
C       1.46       2.31       9.23
C       0.99       3.60       9.52
C      -0.28       4.03       9.12
C      -1.07       3.14       8.38
C      -0.64       1.85       8.06
C      -1.49       0.95       7.20
C       2.86       1.91       9.62
C      -0.79       5.40       9.47
C       0.69      -3.68       8.63
C      -0.65      16.87       8.33
C      -1.54      -3.27       7.49
C      -1.06      15.61       8.77
C      -0.19      14.74       9.44
C       1.11      15.18       9.70
C       1.55      16.45       9.32
C       3.01      -4.11       9.62
C      -0.63      13.35       9.84
C       3.48      -1.16       5.38
C       4.16       0.00       4.96
C       5.03       0.01       3.87
C       5.30      -1.22       3.21
C       4.62      18.56       3.62
C       3.70      18.64       4.67
C       4.94      17.23       3.05
C       4.66      16.92       1.70
C       5.01      15.65       1.21
C       5.59      14.67       2.02
C       5.78      14.98       3.37
C       5.50      16.24       3.90
C       5.87      16.49       5.35
C       3.97      17.88       0.77
C       6.04      13.34       1.47
C       5.58       1.32       3.44
C       6.56       1.99       4.19
C       6.97       3.27       3.78
C       6.40       3.92       2.68
C       5.39       3.25       1.98
C       4.97       1.96       2.34
C       7.15       1.40       5.44
C       3.83       1.30       1.61
C       6.86       5.29       2.26
C       6.83      19.33       1.26
C      -3.64      -3.32      10.12
C      15.70      -3.70       8.20
C      15.09      -2.48       7.80
C      14.21      -2.52       6.72
C      13.92      17.30       5.99
C      14.53      16.11       6.43
C      15.38      16.07       7.53
C      15.88      14.74       7.99
C      15.16      14.07       9.00
C      15.57      12.80       9.41
C      16.68      12.16       8.82
C      17.34      12.82       7.78
C      16.94      14.09       7.33
C      17.61      14.67       6.11
C      13.89      14.67       9.54
C      -3.86      10.80       9.29
C      15.42      -1.16       8.42
C      16.00      -0.16       7.60
C      16.32       1.08       8.18
C      16.11       1.35       9.53
C      15.48       0.38      10.30
C      15.12      -0.87       9.77
C      14.41      -1.85      10.68
C      -4.38       2.64      10.13
C      16.31      -0.38       6.14
C      13.04      17.25       4.81
C      12.61      18.45       4.20
C      11.66      18.44       3.19
C      11.15      17.19       2.78
C      11.66      15.97       3.32
C      12.61      15.99       4.33
C      11.08      14.66       2.90
C       9.79      14.31       3.34
C       9.26      13.06       2.99
C       9.98      12.15       2.20
C      11.28      12.49       1.82
C      11.85      13.72       2.17
C      13.29      14.02       1.85
C       9.03      15.23       4.26
C       9.35      10.84       1.78
C      11.82      -0.60       1.59
C      11.24       0.56       1.05
C      10.01       1.05       1.51
C       9.37       0.36       2.54
C       9.91      -0.80       3.11
C      11.11      19.70       2.62
C      13.10      19.89       1.05
C       9.36       2.27       0.91
C       9.18      -1.51       4.22
C       9.30      17.52       1.06
C      -1.54       9.37      21.81
C      -1.14      11.17      20.07
C      -2.38      11.65      19.57
C      -2.32      -8.41      18.53
C      -1.13      -7.95      17.95
C       0.08      -8.44      18.49
C       0.08      11.63      19.53
C       1.42      11.12      19.95
C       2.34      -9.04      20.67
C       3.62      -9.50      20.96
C       4.02      10.22      20.55
C       3.14       9.42      19.81
C       1.84       9.85      19.50
C       0.94       9.01      18.64
C       1.93      -7.64      21.07
C       5.40       9.71      20.90
C      -3.69      11.17      20.07
C      -4.12       9.86      19.77
C      -3.27       8.94      18.93
C      -5.39       9.45      20.21
C      -6.26      10.32      20.88
C      -5.78      -9.36      21.14
C      -4.51      -8.92      20.76
C      -4.09      -7.50      21.07
C      -7.65       9.88      21.27
C      -1.14      -7.01      16.82
C       0.01      -6.33      16.40
C       0.02      -5.46      15.32
C      -1.21      -5.20      14.66
C      -2.41      -5.84      15.07
C      -2.33      -6.76      16.11
C      -3.74      -5.53      14.49
C      -4.06      -5.82      13.15
C      -5.32      -5.47      12.65
C      14.68      -4.88      13.46
C      -5.99      -4.69      14.81
C      -4.73      -4.98      15.34
C      -4.48      -4.60      16.79
C      -3.12      14.47      12.22
C      13.35      -4.42      12.91
C       1.33      -4.91      14.88
C       2.00      -3.93      15.64
C       3.28      -3.52      15.23
C       3.92      -4.08      14.12
C       3.26      -5.10      13.42
C       1.97      -5.52      13.78
C       1.41      -3.35      16.89
C       1.28      14.32      13.05
C       5.29      -3.61      13.70
C      -1.66      -3.62      12.71
C      17.32       7.15       1.31
C      15.69       6.79       3.24
C      15.08       8.01       3.64
C      14.20       7.97       4.72
C      13.94       6.80       5.45
C      14.55       5.61       5.01
C      15.40       5.57       3.91
C      15.90       4.25       3.46
C      15.18       3.57       2.44
C      15.59       2.30       2.03
C      16.69       1.66       2.62
C      17.35       2.32       3.66
C      16.96       3.59       4.11
C      17.63       4.17       5.33
C      13.91       4.17       1.90
C      17.13       0.30       2.15
C      15.40       9.32       3.02
C      15.98      10.33       3.84
C      16.30      11.56       3.26
C      16.10      11.83       1.90
C      15.48      10.86       1.13
C      15.11       9.61       1.66
C      14.40       8.63       0.76
C      16.59      13.13       1.30
C      16.28      10.11       5.30
C      13.05       6.75       6.63
C      12.63       7.96       7.23
C      11.67       7.95       8.24
C      11.17       6.69       8.66
C      11.67       5.48       8.11
C      12.63       5.49       7.10
C      11.09       4.17       8.53
C       9.80       3.81       8.08
C       9.27       2.57       8.44
C       9.98       1.66       9.24
C      11.28       2.01       9.62
C      11.85       3.24       9.27
C      13.29       3.54       9.59
C       9.04       4.73       7.17
C       9.36       0.36       9.66
C      11.80       9.89       9.84
C      11.22      11.05      10.38
C      10.00      11.54       9.92
C       9.35      10.85       8.89
C       9.89       9.70       8.33
C      11.13       9.21       8.81
C      13.12       9.40      10.38
C       9.35      12.77      10.52
C       9.16       8.99       7.21
C       9.32       7.02      10.38
C       8.94       9.36      12.50
C       9.34      11.16      14.23
C       8.10      11.64      14.73
C       8.12      12.57      15.77
C       9.32      13.03      16.35
C      10.52      12.54      15.81
C      10.56      11.62      14.77
C      11.90      11.11      14.35
C      12.78      11.95      13.64
C      14.07      11.48      13.35
C      14.50      10.22      13.76
C      13.62       9.42      14.50
C      12.32       9.85      14.81
C      11.42       9.01      15.66
C      12.38      13.34      13.24
C      -5.10       9.71      13.41
C       6.79      11.17      14.23
C       6.35       9.86      14.54
C       7.20       8.94      15.38
C       5.09       9.45      14.10
C       4.22      10.33      13.43
C       4.66      11.63      13.17
C       5.94      12.06      13.54
C       6.36      13.48      13.24
C       2.83       9.89      13.04
C       9.34      -7.02      17.49
C      10.50      -6.35      17.91
C      10.51      -5.47      18.99
C       9.28      -5.21      19.65
C       8.08      -5.85      19.25
C       8.16      -6.77      18.20
C       6.75      -5.53      19.82
C       6.44      -5.81      21.17
C       5.17      -5.46      21.67
C       4.19      -4.88      20.86
C       4.50      -4.69      19.51
C       5.76      -4.98      18.97
C       6.00      -4.61      17.53
C       7.40      -6.51      22.10
C       2.87      -4.42      21.41
C      11.82      -4.92      19.43
C      -8.49      -3.93      18.68
C      -7.21      -3.51      19.09
C      -6.56      -4.08      20.18
C      -7.22      -5.10      20.88
C      -8.50      -5.53      20.53
C      11.88      -3.33      17.43
C      -9.16      -6.68      21.25
C      -5.19      -3.61      20.60
C       8.86      -3.64      21.61
C       7.14       6.83      12.75
C       6.78       5.20      14.68
C       8.00       4.60      15.09
C       7.97       3.73      16.18
C       6.80       3.48      16.91
C       5.60       4.08      16.47
C       5.56       4.92      15.36
C       4.24       5.41      14.90
C       3.57       4.69      13.88
C       2.30       5.10      13.47
C       1.66       6.20      14.05
C       2.31       6.86      15.09
C       3.58       6.47      15.55
C       4.15       7.14      16.77
C       4.17       3.42      13.35
C       0.29       6.64      13.57
C       9.31       4.92      14.46
C      10.32       5.51      15.28
C      11.55       5.83      14.70
C      11.82       5.63      13.35
C      10.84       5.00      12.58
C       9.60       4.63      13.11
C       8.63       3.93      12.21
C      13.11       6.13      12.74
C      10.10       5.82      16.74
C       6.75       2.59      18.09
C       7.96       2.17      18.69
C       7.95       1.19      19.69
C       6.70       0.68      20.10
C       5.48       1.19      19.57
C       5.50       2.16      18.56
C       4.17       0.61      19.99
C       3.82      -0.68      19.54
C       2.57      -1.21      19.90
C       1.67      -0.49      20.69
C       2.01       0.81      21.08
C       3.24       1.38      20.72
C       3.54       2.82      21.05
C       4.74      -1.44      18.62
C       0.36      -1.11      21.12
C       9.89       1.32      21.29
C      -9.92       0.75      21.82
C      -9.42      -0.47      21.36
C      10.87      -1.12      20.33
C       9.71      -0.58      19.76
C       9.22       0.65      20.25
C       9.39       2.63      21.84
C      -8.19      -1.11      21.97
C       9.02      -1.31      18.64
C       7.05      -1.18      21.80
C      19.84       8.96       1.06
C       0.66       9.37       2.81
C       1.14       8.13       3.31
C       2.07       8.15       4.34
C       2.53       9.35       4.92
C       2.04      10.55       4.39
C       1.11      10.59       3.35
C       0.60      11.92       2.93
C       1.43      12.81       2.22
C       0.97      14.10       1.93
C      -0.30      14.53       2.35
C      -1.09      13.64       3.08
C      -0.66      12.35       3.39
C      -1.51      11.44       4.25
C       2.83      12.41       1.81
C      -0.81      15.91       2.01
C       0.67       6.82       2.80
C      -0.64       6.38       3.11
C      -1.56       7.23       3.95
C      -1.04       5.11       2.67
C      -0.17       4.25       2.00
C       1.13       4.69       1.73
C       1.56       5.97       2.11
C       2.98       6.39       1.80
C      -0.61       2.86       1.61
C       3.46       9.33       6.06
C       4.14      10.49       6.48
C       5.02      10.49       7.56
C       5.28       9.26       8.22
C       4.63       8.06       7.81
C       3.71       8.14       6.77
C       4.95       6.73       8.38
C       4.67       6.42       9.73
C       5.02       5.15      10.23
C       5.61       4.17       9.42
C       5.79       4.48       8.07
C       5.50       5.74       7.53
C       5.87       5.98       6.08
C       3.98       7.38      10.66
C       6.07       2.85       9.97
C       5.57      11.81       8.00
C       6.55      12.48       7.24
C       6.96      13.76       7.65
C       6.39      14.40       8.75
C       5.38      13.73       9.45
C       4.96      12.45       9.10
C       7.14      11.89       5.98
C       3.81      11.78       9.82
C       6.85      15.77       9.17
C       6.85       8.83      10.17
N      -3.67       6.10      20.69
N      -3.78      -0.28      13.22
N      -0.27      -1.16       9.62
N       6.16      19.71       2.16
N      16.60      -3.66       9.25
N      10.14      17.22       1.83
N      -1.17      10.21      21.06
N      -1.28      -4.30      13.61
N      16.58       6.83       2.18
N      10.16       6.72       9.60
N       9.31      10.20      13.24
N       9.22      -4.32      20.71
N       6.81       6.09      13.62
N       6.74      -0.34      21.03
N      -0.30       9.34       1.81
N       6.18       9.20       9.27
