34

O      15.67       5.35      10.27
O      15.48       3.37       9.23
O      15.95       3.94       4.22
O      15.03       5.76       3.24
O      14.77       9.64       6.09
O      13.66       9.63       8.05
O      10.14       6.03       7.25
O      10.74       3.93       6.64
C      15.32       4.65       9.27
C      14.66       5.32       8.08
C      15.32       4.80       6.78
C      14.63       5.45       5.57
C      14.75       6.99       5.67
C      14.09       7.50       6.96
C      12.60       7.09       6.95
C      12.47       5.57       6.86
C      13.17       4.91       8.08
C      14.78       6.85       8.18
C      13.13       5.05       5.57
C      15.26       5.00       4.26
C      14.17       9.03       7.08
C      11.00       5.13       6.91
H      16.39       5.06       6.78
H      15.25       3.71       6.72
H      14.27       7.45       4.80
H      15.80       7.28       5.64
H      12.09       7.56       6.10
H      12.12       7.47       7.86
H      13.06       3.82       8.02
H      12.69       5.24       9.01
H      14.30       7.21       9.10
H      15.84       7.14       8.23
H      12.63       5.47       4.69
H      13.03       3.95       5.52
