34

C      15.32       3.74      16.02
C      14.63       3.09      14.81
C      14.75       1.56      14.90
C      14.09       1.05      16.18
C      12.60       1.45      16.18
C      12.47       2.98      16.09
C      13.16       3.63      17.31
C      14.78       1.69      17.41
C      13.14       3.50      14.80
C      15.26       3.55      13.50
C      14.16      -0.48      16.29
C      11.00       3.41      16.12
H      16.39       3.48      16.02
H      15.25       4.83      15.97
H      14.27       1.10      14.03
H      15.81       1.26      14.87
H      12.09       0.98      15.33
H      12.12       1.07      17.09
H      13.07       4.73      17.26
H      12.68       3.30      18.24
H      14.30       1.32      18.33
H      15.83       1.40      17.46
H      12.64       3.07      13.92
H      13.04       4.59      14.75
O      15.65       3.20      19.53
O      15.49       5.17      18.45
O      15.96       4.61      13.46
O      15.03       2.78      12.48
O      14.77      -1.09      15.30
O      13.66      -1.09      17.25
O      10.14       2.51      16.45
O      10.74       4.62      15.84
C      15.32       3.89      18.51
C      14.66       3.22      17.32
