13

H       3.70       8.37      16.54
H       3.06       6.53      18.13
C       4.30       8.15      17.43
C       3.90       7.18      18.35
C       4.68       6.98      19.50
C       5.83       7.73      19.65
C       6.17       8.70      18.70
C       4.29       5.98      20.54
H       6.50       7.50      20.47
H       6.97       9.40      18.87
N       5.38       8.92      17.61
O       5.08       5.83      21.54
O       3.20       5.35      20.39
