13

C       4.24       0.98       2.13
C       4.19       3.02      -1.06
O       3.11       3.67      -0.92
O       4.99       3.14      -2.06
H       6.88      -0.36       0.71
H       6.40       1.48      -0.97
H       2.97       2.54       1.35
H       3.68       0.81       3.05
N       5.33       0.21       1.99
C       6.10       0.37       0.87
C       5.73       1.28      -0.13
C       4.58       2.04      -0.00
C       3.81       1.88       1.16
