13

H       4.24      12.26      13.80
H       4.73      14.09      12.11
C       5.39      13.90      12.95
C       6.55      14.65      13.07
C       5.03      12.99      13.95
C       6.88      13.60      15.21
H       7.44      13.45      16.13
C       7.32      14.50      14.23
H       8.16      15.16      14.42
C       6.93      15.63      12.01
N       5.79      12.83      15.07
O       8.01      16.28      12.16
O       6.14      15.75      11.01
