13

O       3.84      12.14       4.61
O       5.73      11.66       5.77
H       5.23      14.65       9.62
H       5.88      12.83       8.00
H       2.43      13.81       5.68
H       1.96      15.70       7.30
C       4.64      14.44       8.73
C       5.04      13.48       7.79
C       4.26      13.29       6.64
N       3.56      15.21       8.55
C       2.77      15.00       7.47
C       4.64      12.29       5.61
C       3.10      14.04       6.50
