18

C      -4.53       2.06      11.04
H      -6.12       1.15      10.14
C      -2.49       2.41      13.00
C      -5.01      -0.24      12.05
O      -4.75      -1.06      13.00
O      -2.37       5.61      11.22
H      -3.99       4.07      10.42
H      -3.03       0.43      13.64
C      -2.07       4.75      12.13
C      -3.79       3.26      11.12
C      -3.22       1.24      12.94
O      -1.24       4.94      13.08
C      -4.25       1.03      11.99
H      -1.71       2.57      13.73
O      -5.93      -0.43      11.16
C      -2.79       3.44      12.08
H      -5.84       2.80       9.65
N      -5.48       1.94      10.05
