18

H       3.65       7.83       7.70
C       3.83      12.22       5.81
C       3.18      11.76       6.94
O       6.13      10.91       3.30
N       4.24       8.18       6.95
H       2.58      12.43       7.55
C       5.29      11.74       3.80
C       4.06       9.50       6.60
O       2.66       8.80       8.99
H       5.32       9.31       4.85
C       2.45       9.99       8.52
O       1.58      10.80       8.99
C       4.71       9.99       5.45
H       3.78      13.26       5.51
C       4.60      11.31       5.05
O       4.99      12.88       3.31
C       3.25      10.41       7.35
H       4.51       7.54       6.21
