56

Ca       9.86       3.29      18.68
O       9.92       5.56      19.00
O       7.51       2.96      18.80
Ca      11.86       1.23      16.73
Ca       9.82      -0.81      14.79
Ca      10.12       3.48      22.31
O      11.47      -0.46      13.01
O       9.85      -3.07      14.41
Ca      10.06      -1.02      11.16
O      11.59      -1.81       9.57
Ca      10.30      -1.23       7.52
O       7.73       6.98      29.68
O      12.65      -1.55       7.62
Ca      10.37       3.66      25.94
O      12.72       3.99      25.83
Ca       8.38       5.72      27.89
C      10.50       0.85      24.49
C      12.74       4.27      24.59
C      10.17       4.14      29.31
C       7.61      -1.94       8.65
C      12.51      -0.10      13.66
C       7.49       2.68      20.03
C       7.67       4.43      24.81
C      10.18       7.28      26.47
C      10.06      -0.33      18.16
C       9.65      -3.64      13.28
C      10.47       1.60       9.03
C      12.67      -1.83       8.86
C      10.07       2.82      15.32
C       7.45      -0.21      13.45
C      12.56       2.53      19.81
C       9.74       6.10      20.14
O       9.79       5.48      21.25
O      10.15       6.02      26.28
O      10.57       3.31      16.40
O      10.15       5.40      29.49
O      10.31       1.39      25.63
O       9.69       7.78      27.56
O      10.45       1.47      23.37
O       8.72       4.07      24.17
O      11.51       2.88      20.45
O       8.56       2.71      20.76
O      11.67       4.24      23.86
O       8.52      -0.23      12.74
O      12.57       2.45      18.53
O       7.47      -0.48      14.69
O      12.50      -0.02      14.94
O       9.67       3.64      28.22
O       8.65      -1.58       9.30
O      10.27       1.03       7.90
O      10.09       0.94      18.34
O      10.08       1.55      15.13
O       9.71      -3.05      12.15
O       7.66       4.50      26.10
O      10.55      -0.83      17.07
O      10.41       1.01      10.16
