26

H      -0.88       2.92      10.88
C      -0.51       5.32      12.10
H      -2.52       3.66      10.91
C      -1.59       4.66       6.68
H      -2.58       3.12       8.61
H      -0.86       2.78       8.65
H       1.13       4.30      10.22
O      -1.41       3.49       6.12
O      -2.36       5.58       6.23
O       0.44       4.59      12.62
O      -0.88       6.47      12.53
C      -1.83       6.16      10.16
C      -1.87       6.12       8.67
C       0.44       5.08       9.87
C      -1.52       3.71      10.44
C      -0.87       5.06      10.69
C      -1.22       4.82       8.10
C       0.27       4.97       8.34
C      -1.62       3.53       8.91
H       0.83       4.10       7.94
H      -1.56       7.19      10.46
H      -2.83       5.99      10.59
H      -2.88       6.30       8.34
H      -1.32       7.01       8.27
H       0.79       6.06      10.08
H       0.65       5.88       7.82
