26

C       7.61       0.61       6.64
C       7.61      -0.60      12.10
O       8.80      -0.86      12.51
O       8.80       0.83       6.21
C       9.00       0.10      10.15
C       9.00       0.14       8.65
O       6.52       1.04       6.08
C       6.94      -1.34       9.86
O       6.52      -1.07      12.64
C       6.63       1.21       8.86
C       6.72       1.05      10.39
C       6.95      -1.15       8.33
C       7.56      -0.18      10.67
C       7.55       0.22       8.08
H       9.75      -0.65      10.45
H       9.65       0.94       8.32
H       9.36       1.05      10.56
H       9.51      -0.77       8.26
H       7.59      -2.13      10.11
H       6.76       2.24       8.54
H       7.55      -1.94       7.83
H       7.18       1.95      10.86
H       5.72       0.89      10.83
H       5.92      -1.22       7.91
H       5.60       0.92       8.59
H       5.90      -1.53      10.21
