26

C      -0.31       3.75      17.91
O      -2.35       5.55      21.90
C      -0.57       3.54      19.41
C      -0.21       6.29      18.26
O       0.46       4.59      15.45
C      -0.46       5.34      16.01
C      -2.31       5.15      17.69
O      -0.87       6.47      15.58
C      -0.81       5.12      17.43
C      -1.21       4.81      20.01
O      -1.39       3.46      22.01
C      -0.26       5.99      19.78
C      -2.52       5.14      19.21
C      -1.58       4.63      21.44
H       0.74       3.57      17.67
H      -0.88       3.03      17.33
H      -2.78       4.27      17.20
H      -1.25       2.67      19.56
H       0.39       3.31      19.93
H       0.77       6.55      17.88
H       0.74       5.74      20.17
H      -3.30       4.44      19.49
H      -2.82       6.17      19.50
H      -0.80       7.22      18.08
H      -0.61       6.89      20.33
H      -2.78       6.06      17.25
