31

C       0.29       5.33      10.83
C       0.89       4.55       9.83
C       0.16       3.50       9.27
C      -1.56       5.91      12.34
C       2.27       4.86       9.37
C       3.30       3.89       9.35
C       4.59       4.24       8.91
C       4.83       5.54       8.44
C       3.83       6.50       8.46
C       2.57       6.17       8.95
C       5.70       3.24       8.98
C       3.03       2.51       9.87
O      -1.17       1.18       8.47
O      -3.15       1.99       9.09
O      -2.75       5.69      12.81
H       7.62       3.05       8.87
O       6.89       3.77       8.69
O       5.51       2.06       9.29
O       3.17       2.30      11.13
O       2.62       1.59       9.08
O      -0.82       6.82      12.83
H      -2.76       3.81      11.01
H       0.84       6.14      11.30
H       0.59       2.90       8.48
H       5.83       5.78       8.07
H       4.03       7.51       8.11
H       1.80       6.93       9.00
C      -1.87       2.07       9.05
C      -1.15       3.22       9.69
C      -1.75       4.01      10.68
C      -1.02       5.06      11.25
