31

O      10.62      25.01       6.45
O       8.64      24.21       5.84
O       9.04      20.51       2.11
O      10.97      19.37       2.09
O      18.68      22.43       6.23
O      17.31      24.14       5.63
O      14.96      23.89       3.79
H      19.41      23.15       6.05
O      14.41      24.60       5.84
H       9.03      22.39       3.91
H      12.63      20.05       3.62
H      12.38      23.30       6.45
H      17.62      20.41       6.85
H      15.82      18.68       6.81
H      13.59      19.26       5.92
C       9.92      24.13       5.87
C      10.64      22.98       5.23
C      10.04      22.19       4.24
C      10.78      21.14       3.67
C      12.09      20.87       4.09
C      12.69      21.65       5.09
C      11.95      22.70       5.66
C      10.23      20.29       2.58
C      14.06      21.33       5.55
C      15.09      22.30       5.57
C      16.38      21.95       6.02
C      16.63      20.66       6.48
C      15.62      19.69       6.46
C      14.36      20.03       5.97
C      17.49      22.95       5.94
C      14.82      23.69       5.06
