31

O       6.67       6.10       1.29
O       8.42       4.70       1.36
O       8.84       1.86       5.70
O       6.88       1.13       6.44
O       2.50       1.97       3.59
O       3.11       1.52       5.70
O      -1.18       3.70       5.82
O       0.26       1.97       5.56
H      -1.90       2.95       5.77
C       7.30       5.14       1.84
H       5.10       2.90       6.19
H       4.91       5.63       2.86
C       6.84       2.97       4.93
C       5.55       3.35       5.31
C       4.82       4.31       4.57
C       5.43       4.89       3.45
C       6.73       4.51       3.06
C       3.45       4.71       4.97
C       2.41       3.77       5.14
C       1.12       4.19       5.52
C       0.87       5.55       5.74
C       7.56       1.93       5.74
C       3.15       6.07       5.15
C       2.67       2.33       4.82
C       0.03       3.18       5.64
C       1.88       6.49       5.56
H       8.44       3.26       3.49
C       7.44       3.55       3.80
H      -0.12       5.85       6.06
H       1.68       7.54       5.72
H       3.93       6.82       5.00
