31

O       7.07      14.27      21.38
O       9.04      15.08      20.74
O       8.63      18.72      17.02
O       6.74      19.92      17.03
O      -1.00      16.86      21.09
O       0.40      15.16      20.55
O       2.76      15.41      18.70
O       3.26      14.69      20.76
C       7.76      15.16      20.79
C       7.04      16.31      20.16
H      -1.73      16.14      20.92
C       7.64      17.09      19.17
C       5.60      18.42      19.02
C       5.00      17.64      20.02
C       5.73      16.59      20.59
C       6.91      18.14      18.59
C       3.62      17.96      20.48
C       2.59      17.00      20.49
C       1.30      17.35      20.92
C       1.06      18.65      21.39
H       5.05      19.23      18.54
C       3.33      19.27      20.90
C       0.20      16.35      20.84
C       2.87      15.61      19.98
H       5.29      15.99      21.37
H       4.11      20.03      20.85
C       2.07      19.60      21.38
H       0.06      18.89      21.76
H       1.87      20.61      21.73
C       7.46      18.98      17.50
H       8.65      16.89      18.84
