18

C      10.00       4.24       5.40
C       9.95       4.27       4.04
C      10.71       3.37       3.28
C      11.61       2.49       3.91
C      11.67       2.48       5.30
C      11.26       3.66       7.40
C      10.88       3.37       6.04
O      10.90       4.80       7.86
O      12.20       2.95       7.90
O      10.38       1.93       1.49
C      10.25       3.12       1.93
O       9.44       3.98       1.44
C      12.52       1.60       3.15
H       9.39       4.95       5.96
H       9.25       4.97       3.58
H      12.39       1.83       5.79
O      12.95       0.57       3.64
H      12.81       1.85       2.13
