144

Cr       6.47       3.75       9.44
Cr       8.22       6.73       9.42
Cr       9.92       3.71       9.33
Cr      15.42       9.00       0.14
Cr      11.94       8.86      18.70
Cr      13.72       6.00       0.02
H      11.80       8.49      14.85
H      11.59       8.29      12.65
H      13.45       6.79      14.69
H      13.09       6.62      12.49
H       9.26       5.81      15.39
H       8.97       5.42      13.25
H      10.23       4.18      13.23
H      13.12       5.08      14.94
H       6.13       1.24      12.87
H       6.14       1.29      15.23
H      15.64       9.12      15.03
H      11.52       0.87      15.19
H      11.51       1.17      12.80
H      15.72       9.36      12.63
H       6.63       8.19      13.10
H       6.77       8.09      15.49
H       4.16       3.36      15.42
H       6.00       3.64      15.61
H       6.24       3.67      13.21
H       4.41       3.27      13.04
H      10.29       8.28       5.98
H      10.50       8.56       3.55
H      12.70       4.28       3.27
H      10.99       2.90       5.35
H      12.48       3.99       5.63
H      10.09       0.95       6.12
H      10.11       0.71       3.69
H       4.77       1.70       3.48
H       5.99       3.12       3.32
H       5.97       3.41       5.68
H       4.73       2.02       5.85
H       4.01       4.75       6.23
H       3.56       5.03       3.84
H       6.66       9.49       3.75
H       7.31       7.77       3.45
H       7.78       7.57       5.74
H       7.07       9.28       6.07
H       2.65       4.51      11.63
H       8.61       7.79      12.81
C       6.10       6.11      11.47
C      10.60       5.92      11.26
C       8.13       2.10      11.32
C       5.94       6.19       7.57
C      10.41       5.90       7.36
C       8.01       2.12       7.45
C      10.93       7.82      14.67
C      10.77       7.70      13.12
C      12.68       6.01      14.52
C      10.22       5.41      15.02
C      11.36       6.42      15.26
C      10.96       6.19      12.68
C      12.46       5.86      13.00
C      10.03       5.23      13.51
C       8.31       1.35      15.46
C       9.49       1.48      14.73
C       9.47       1.63      13.34
C       7.09       1.31      13.36
C       7.10       1.36      14.74
C      10.59       0.51      14.69
C      10.60       0.68      13.19
C       8.26       1.52      12.64
C       5.56       6.32      15.68
C       4.86       5.35      14.95
C       4.95       5.31      13.56
C       6.21       7.33      13.59
C       6.29       7.28      14.97
C       5.07       3.88      15.06
C       5.21       3.85      13.55
C       5.64       6.30      12.85
C      10.79       6.45       3.14
C      10.76       5.19       3.72
C      10.64       5.03       5.08
C      10.44       7.41       5.36
C      10.52       7.56       3.96
C      11.68       4.02       3.58
C      11.53       3.82       5.07
C      10.61       6.14       5.93
C       8.01       1.16       3.42
C       6.80       1.26       4.09
C       6.78       1.40       5.46
C       9.16       1.04       5.56
C       9.18       0.93       4.18
C       5.68       2.21       3.87
C       5.66       2.39       5.37
C       7.98       1.43       6.19
C       4.62       6.89       3.66
C       5.33       7.86       4.37
C       5.60       7.71       5.70
C       4.35       5.64       5.73
C       4.08       5.81       4.36
C       6.68       8.44       4.08
C       6.97       8.30       5.54
C       5.21       6.54       6.37
C       8.24       0.83      16.83
C      11.69       6.50      16.70
C       5.10       6.66      17.03
C       8.00       0.92       2.00
C      11.41       6.62       1.84
C       4.41       7.11       2.24
C      12.98       4.53      12.49
C       9.50       8.33      12.65
N       9.76       8.46      15.33
N      11.12       2.96       2.74
N      10.44       4.14      15.72
O       6.95       2.38      10.93
O       5.93       4.98      10.89
O       6.87       7.02      10.99
O       9.62       6.59      10.79
O      10.91       4.75      10.84
O       9.18       2.58      10.75
O       6.87       2.40       7.89
O       5.86       5.01       8.07
O       6.79       7.04       7.95
O       9.54       6.62       7.97
O      10.83       4.78       7.80
O       9.10       2.60       7.94
O       8.20       4.73       9.40
O       5.44       7.80      17.50
O       9.27       0.40      17.48
O       7.06       0.62      17.21
O      11.47       7.61      17.25
O      12.41       5.57      17.21
O       4.14       5.97      17.52
O       5.26       7.94       1.73
O       9.10       0.54       1.49
O       6.87       0.76       1.44
O      11.30       7.76       1.26
O      12.22       5.71       1.44
O       3.97       6.11       1.52
O      13.71       7.99       0.02
O      12.65       3.47      13.00
O       9.11       7.90      16.31
O       4.04       0.11      15.06
O      10.05       3.19       2.04
O      11.89       1.98       2.40
O       9.50       9.40      12.06
O      11.50       3.42      15.50
O       9.67       3.82      16.72
