18

H       6.02      12.89       1.08
H       3.41      15.18       3.60
H       3.05      10.89       3.48
C       5.05      10.47       1.59
C       4.60      11.75       2.23
C       5.22      12.94       1.82
C       4.79      14.17       2.30
C       3.75      14.22       3.23
C       3.13      13.04       3.66
C       3.55      11.80       3.16
C       1.97      13.19       4.59
C       5.38      15.45       1.83
O       6.26      10.38       1.21
O       4.15       9.56       1.48
O       1.57      14.39       4.83
O       1.39      12.17       5.09
O       4.81      16.54       2.01
O       6.53      15.31       1.21
