58

H       8.43       0.16      10.10
H      10.13      -0.53       8.41
H      12.52       0.06       8.68
H      13.32       1.33      10.65
H      11.21       2.71      15.64
H       8.26       4.45      13.01
C       9.92       1.22      11.29
C       9.48       0.44      10.21
C      10.44       0.04       9.28
H      13.45       2.38      12.62
C      12.26       1.11      10.53
C      11.29       1.53      11.45
C      10.10       2.48      13.08
C       9.78       3.44      14.16
H      12.72       2.72      14.17
C      11.80       0.38       9.43
C      10.47       3.47      15.38
C       8.83       4.45      13.93
C      12.62       2.92      13.10
C      12.70       4.42      12.81
C       8.63       5.44      14.89
C       9.39       5.41      16.05
H       7.90       6.23      14.72
H       9.31       6.18      16.82
H       8.44       9.00      14.03
H      10.13       9.68      15.72
H      12.52       9.08      15.45
N       9.20       1.82      12.32
N      11.38       2.31      12.60
N      10.29       4.44      16.30
H      13.32       7.83      13.47
H       9.31       2.97       7.31
H      11.21       6.44       8.48
H      13.45       6.77      11.50
H      12.71       6.43       9.95
H      11.87       4.22      10.81
H      13.62       4.35      10.85
N      11.38       6.85      11.53
N       9.20       7.33      11.81
H      11.87       4.93      13.32
N      10.29       4.71       7.83
H       8.26       4.70      11.11
H       7.90       2.92       9.40
H      13.62       4.80      13.27
C       9.92       7.94      12.84
C       9.48       8.72      13.92
C      10.44       9.11      14.85
C      11.81       8.77      14.69
C      12.26       8.04      13.59
C      11.29       7.62      12.68
C      10.10       6.67      11.05
C       9.78       5.72       9.96
C      10.47       5.69       8.74
C       8.83       4.71      10.19
C       8.63       3.72       9.23
C       9.39       3.74       8.07
C      12.62       6.23      11.03
C      12.70       4.73      11.32
