54

Ca       2.36       5.74       7.63
Ca       0.71      11.98       1.65
Ca      -0.58       3.91       5.53
Ca       8.78      11.04      11.50
Ca       4.74      11.51       6.58
Ca       4.05       2.97      13.16
C       4.60       7.98       9.00
C       4.07       6.37      10.56
C       3.17       8.48       5.71
C      -0.31       6.04       8.45
C       1.89       9.76       3.96
C       0.15       8.83       2.75
C       6.08       9.94       9.48
C       9.01       7.79      12.15
C      -0.68       6.49       3.14
C       4.83       6.45      12.96
C      -2.82       1.68       4.16
C      -2.29       3.29       2.59
C      -1.38       1.18       7.44
C       2.10       3.61       4.71
C       7.60      13.26       9.20
C       9.34      14.19      10.41
C       3.41      13.08       3.68
C       6.80      11.52      14.16
C       2.47       3.17      10.02
C       3.28      -0.50      13.35
N       3.97       6.83       9.30
N       0.93       9.90       3.02
N      -2.18       2.83       3.85
N       8.56      13.13      10.14
O       5.20       7.20      13.91
O       3.32       7.35       6.28
O      -0.20       5.26       7.42
O       7.10      10.30      10.14
O       5.64      10.55       8.44
O      -1.31       6.50       2.03
O      -0.80       5.60       4.03
O       3.85       9.52       5.97
O       4.49       5.22      13.10
O       9.50       8.96      12.01
O       0.60       6.86       8.76
O       1.89      11.16      -0.07
O       2.90      -1.26      12.41
O      -1.54       2.30       6.87
O       1.99       4.39       5.73
O       2.39      12.72       3.01
O       3.85      12.47       4.72
O       3.10       3.16      11.13
O       2.59       4.05       9.13
O       5.64      13.50       7.18
O       3.62       0.72      13.21
O      -0.01      14.07       1.15
O       1.19       2.79       4.39
O       7.60      11.86      13.23
