23

H       4.35      -1.12       4.09
H       7.35      -1.75       4.11
H       4.58      -2.79       6.05
H       7.93       2.04       7.63
H       7.93       2.01       5.82
H       6.70       2.98       6.71
H       5.70       0.90       5.84
H       5.69       0.91       7.64
H       7.79      -0.46       7.66
H       7.80      -0.56       5.90
C       6.10      -2.37       8.16
C       5.31      -1.42       4.50
C       6.41      -1.34       3.73
C       5.33      -2.03       5.85
C       6.18      -1.68       6.85
C       6.43      -0.79       2.36
C       7.12      -0.48       6.77
C       6.34       0.84       6.74
C       7.29       2.04       6.72
O       7.26      -2.68       8.73
O       4.88      -2.53       8.67
O       7.65      -0.66       1.84
O       5.27      -0.51       1.78
