15

N       9.34       3.39       8.55
H       7.00       2.69       7.51
H       4.99       1.22       7.34
H       7.80       0.89      11.35
N      10.34       3.87      10.45
H       5.78      -0.51      11.03
C       8.75       2.75       9.59
C       6.76       1.99       8.30
C       5.63       1.18       8.22
C       7.57       1.91       9.44
C       7.20       1.00      10.45
N       9.35       3.03      10.77
N      10.34       4.07       9.11
N       5.28       0.29       9.17
C       6.06       0.22      10.27
