15

C       4.25       4.75       9.23
H       5.00       2.90      11.83
C       6.45       5.36       9.99
N       4.11       3.82      10.20
C       7.67       6.16       9.89
N       9.47       7.19      10.41
C       6.31       4.40      10.99
C       5.14       3.65      11.06
H       5.45       6.27       8.28
H       3.40       4.88       8.56
N       8.41       6.57      10.95
N       9.38       7.15       9.09
H       7.13       4.20      11.68
N       8.25       6.52       8.73
C       5.40       5.52       9.07
