15

N       7.41       4.03      18.50
H       8.94       5.38      18.16
C       6.18       5.11      16.19
C       6.20       3.60      18.07
N       5.31       6.50      12.99
C       5.56       4.10      16.94
H       7.95       6.38      16.11
C       7.98       5.02      17.79
N       4.25       5.62      14.69
N       6.23       6.18      13.92
N       4.13       6.17      13.46
H       5.74       2.81      18.66
C       7.42       5.58      16.64
C       5.56       5.63      14.97
H       4.58       3.70      16.65
