50

Mn       8.90       8.64      18.34
Mn       9.76       8.38      23.36
Mn      13.09       9.39      24.37
Mn       5.95       9.77      19.52
Mn      12.24       9.69      19.36
C      12.28       6.59      23.84
Mn       4.58       8.26      23.18
C      10.22       7.24      20.39
C       5.98      10.95      22.37
C      11.31       9.11      16.58
O      12.04      10.48      21.16
H      13.82       8.35      20.55
O      12.24       9.08      17.43
O       4.43       8.15      25.41
O      14.29       9.68      22.99
O      10.04       9.02      16.81
C       6.75       9.06      16.57
O       9.76       8.96      25.29
O       9.96       7.62      21.55
O       6.65      10.54      21.35
O       8.77      10.61      18.78
O      10.44       8.07      19.40
H      14.90      10.42      23.19
C       7.15       6.42      23.54
C      10.69       8.93      26.14
O       7.69       8.36      19.71
O      11.55      10.00      23.31
O      10.97      11.20      18.84
O       5.11       7.88      19.52
H       8.15       9.69      22.19
C      14.91      11.63      19.13
H       7.10       7.59      19.53
O       5.99       6.82      23.18
O      11.03       6.88      23.87
O       6.11       9.87      17.29
O      11.96       9.01      25.91
O       3.87       7.48      21.36
O      13.24       7.43      23.94
O      14.42       9.88      25.69
O       5.38      10.17      23.19
O      13.97      10.80      18.92
O       4.67      11.33      19.40
O       8.13       7.18      23.81
O      13.07       8.21      19.92
O       8.86       9.83      22.85
C      11.77      10.84      22.33
O       7.57       8.15      17.02
C       9.72      11.47      18.87
C       4.53       7.09      20.34
C      15.25       8.97      26.13
