50

Mn       1.23       0.66      12.64
Mn       2.07       0.38       7.63
C      -0.36      -0.09       5.88
C      -0.82      -1.81      11.61
C       0.32       0.12      15.43
Mn      -1.27      -0.64       8.66
Mn       6.41       0.78      12.51
Mn      -2.08      -0.36      13.68
Mn       5.01      -0.75       8.84
C       5.02      -1.90      11.71
C       1.27      -2.43       8.16
O       5.83       1.15       8.79
O      -2.98      -1.78       8.20
O      -1.10      -1.45      10.45
O       5.06       2.27      12.53
O       6.57       0.88      14.72
O       0.91       0.00       6.10
O       1.04       1.47      10.85
O      -1.29      -0.06       6.73
C      -3.92      -2.59       8.44
O      -2.13       0.82       9.21
H       3.88       1.42       8.80
O      -0.04       2.16      13.16
C       3.87       2.61      12.86
O      -3.43      -0.85      14.99
O       2.23      -1.59       8.06
O       2.92       1.81      13.09
C       6.42       1.92       9.64
O       3.41       0.86       6.32
O       6.33      -2.26       8.75
O       1.25       0.08      14.58
C       0.77       1.83       9.68
O       3.29       0.67       9.00
O      -3.31      -0.65      12.33
O      -2.24       1.61      13.29
O       4.88      -0.85       6.59
O       2.07      -0.80      12.08
H       2.85      -0.66      11.48
O      -0.59      -0.97      12.59
O      -0.94       0.02      15.20
O       0.02      -2.13       8.13
H      -3.91      -1.39      12.54
O       5.61      -1.14      12.55
O       7.07       1.48      10.65
O       4.36      -1.46      10.70
O       0.54       1.00       8.69
H      -2.88       0.67       9.84
C       4.24      -0.05       5.87
C      -4.24       0.07      15.44
C      -1.28       2.45      13.16
