204

Zn      13.87       2.61       4.02
Zn      12.56       3.36       6.15
Zn       8.71      10.19       6.26
Zn       4.53       2.93       6.33
Zn       3.21       2.18       4.20
Zn       8.70      11.70       4.09
Zn       4.81       8.47      16.67
Zn       6.13       7.73      14.55
Zn       9.98       0.90      14.43
Zn      14.16       8.15      14.37
Zn      15.48       8.90      16.50
Zn       9.99      -0.62      16.61
H       8.27       2.32       5.01
H       6.54       0.58       1.46
H      10.81       1.00       1.80
H      13.24      -0.10       8.54
H       6.03      12.51       8.54
H      24.72      15.00       5.02
H      13.88       6.16       1.49
H      11.77       9.92       1.45
H      11.27       7.21       4.77
H      17.61       3.22       5.34
H      15.89       4.96       8.89
H       1.47       4.54       8.55
H       3.88       5.64       1.81
H       6.02       9.38       1.80
H       6.04       6.89       5.32
H       4.54      -0.62       8.86
H      11.77      11.97       8.90
H      11.26      14.68       5.59
H      10.42       8.77      15.68
H      12.14      10.50      19.24
H       7.87      10.09      18.90
H       5.45      11.18      12.16
H      12.66      -1.43      12.15
H      -6.04      -3.92      15.67
H       4.81       4.92      19.20
H       6.92       1.17      19.25
H       7.42       3.88      15.93
H       1.08       7.86      15.36
H       2.80       6.12      11.80
H      17.22       6.54      12.14
H      14.81       5.45      18.89
H      12.66       1.71      18.89
H      12.65       4.19      15.37
H      14.14      11.70      11.84
H       6.92      -0.88      11.79
H       7.43      -3.60      15.11
C      10.89       2.19       4.23
C       9.67       1.71       3.49
C       8.39       1.87       4.03
C       7.26       1.47       3.30
C       7.41       0.89       2.03
C       8.70       0.70       1.50
C       9.83       1.13       2.23
C      13.88       0.65       5.97
C      14.26      -0.59       6.69
C      13.86      -0.82       8.02
C      14.27      -1.99       8.69
C       5.71      13.41       8.03
C       6.11      13.65       6.70
C      15.07      -1.53       6.04
C       6.99      12.68       5.99
C      12.89       5.21       3.82
C      12.59       6.53       3.19
C      13.19       6.86       1.98
C      12.92       8.09       1.38
C      12.00       8.98       1.95
C      11.41       8.67       3.18
C      11.72       7.45       3.81
C      10.46       9.63       3.81
C       5.90       1.70       3.89
C       1.55       3.36       6.12
C       0.32       3.83       6.86
C      17.73       3.67       6.32
C      16.60       4.08       7.05
C      16.76       4.65       8.31
C      18.04       4.84       8.85
C       0.48       4.42       8.12
C       4.53       4.89       4.37
C       4.91       6.14       3.65
C       4.50       6.37       2.33
C       4.91       7.53       1.65
C       5.71       8.48       2.32
C       6.11       8.24       3.64
C       5.71       7.07       4.30
C       6.98       9.21       4.36
C       3.55       0.34       6.54
C       3.25      -0.99       7.16
C       3.86      -1.31       8.38
C      12.91      13.79       8.98
C      12.00      12.91       8.40
C      11.41      13.22       7.17
C      11.71      14.44       6.55
C      10.46      12.26       6.54
C      15.24       3.85       6.46
C       7.80       8.90      16.47
C       9.02       9.37      17.21
C      10.30       9.21      16.67
C      11.43       9.62      17.40
C      11.28      10.20      18.66
C       9.99      10.38      19.19
C       8.86       9.96      18.47
C       4.81      10.43      14.72
C       4.42      11.68      14.00
C       4.83      11.91      12.67
C       4.42      13.07      12.00
C      12.98      -2.33      12.67
C      12.58      -2.56      13.99
C       3.62      12.61      14.65
C      11.70      -1.59      14.70
C       5.80       5.88      16.88
C       6.10       4.55      17.50
C       5.50       4.23      18.72
C       5.77       2.99      19.32
C       6.69       2.11      18.74
C       7.27       2.42      17.52
C       6.97       3.64      16.89
C       8.23       1.45      16.89
C      12.79       9.39      16.80
C      17.14       7.73      14.57
C      18.36       7.26      13.83
C       0.96       7.41      14.37
C       2.09       7.01      13.65
C       1.93       6.43      12.38
C       0.65       6.25      11.85
C      18.21       6.67      12.57
C      14.16       6.20      16.32
C      13.78       4.95      17.04
C      14.19       4.72      18.37
C      13.78       3.55      19.04
C      12.98       2.61      18.38
C      12.58       2.84      17.05
C      12.98       4.01      16.39
C      11.70       1.87      16.34
C      15.14      10.74      14.15
C      15.43      12.07      13.53
C      14.83      12.40      12.32
C       5.78      -2.71      11.72
C       6.69      -1.82      12.29
C       7.28      -2.14      13.52
C       6.98      -3.36      14.15
C       8.23      -1.18      14.16
C       3.44       7.24      14.24
N       8.75       0.09       0.22
N      13.82      -2.11      10.04
N      13.51       8.53       0.17
N      18.10       5.45      10.13
N       4.46       7.65       0.30
N      13.51      13.36      10.18
N       9.93      10.99      20.47
N       4.87      13.20      10.65
N       5.18       2.56      20.52
N       0.59       5.63      10.57
N      14.23       3.43      20.39
N       5.18      -2.28      10.52
O      12.00       2.02       3.61
O      10.77       2.72       5.38
O      14.35       0.82       4.79
O      13.11       1.46       6.59
O      13.55       4.36       3.11
O      12.47       5.02       5.00
O       5.90       2.09       5.11
O       4.85       1.51       3.18
O       7.34      12.97       4.79
O       7.33      11.63       6.63
O      10.10      10.66       3.12
O      10.07       9.35       4.99
O       2.65       3.54       6.74
O       1.42       2.82       4.96
O       5.00       4.72       5.56
O       3.76       4.07       3.75
O       4.21       1.19       7.24
O       3.12       0.53       5.35
O      15.24       3.46       5.24
O      14.20       4.03       7.17
O       7.34       8.92       5.56
O       7.33      10.26       3.71
O      10.09      11.23       7.22
O      10.07      12.54       5.36
O       6.69       9.07      17.08
O       7.92       8.36      15.31
O       4.34      10.26      15.91
O       5.58       9.62      14.10
O       5.13       6.72      17.58
O       6.22       6.07      15.69
O      12.79       9.00      15.58
O      13.84       9.57      17.52
O      11.35      -1.88      15.90
O      11.36      -0.55      14.06
O       8.59       0.42      17.57
O       8.62       1.73      15.71
O      16.04       7.55      13.96
O      17.27       8.27      15.73
O      13.69       6.37      15.14
O      14.92       7.01      16.94
O      14.48       9.90      13.45
O      15.57      10.55      15.34
O       3.45       7.63      15.46
O       4.49       7.06      13.52
O      11.35       2.16      15.13
O      11.36       0.83      16.98
O       8.59      -0.15      13.47
O       8.62      -1.45      15.34
