18

C      12.51      12.47       7.30
C      11.75      11.72       6.28
C       9.66       9.60       3.17
C      10.40      10.34       4.23
H      11.60      11.50       2.85
C      10.74      10.76       6.62
O      13.36      13.35       6.91
C      11.38      11.30       3.90
H      10.96      10.86       8.64
O       9.91       9.91       1.95
O      12.28      12.20       8.54
O       8.81       8.72       3.55
H       9.32       9.35       5.79
H      12.80      12.71       4.70
N      10.36      10.50       7.91
C      10.09      10.08       5.56
H       9.82       9.66       8.07
C      12.03      11.97       4.92
