18

O      13.35      16.22       6.92
O       9.95      19.69       1.93
H       9.31      20.21       5.77
H      12.77      16.84       4.71
H      11.61      18.06       2.86
O       8.79      20.82       3.54
C      10.08      19.48       5.55
C       9.67      19.97       3.15
C      12.01      17.59       4.93
C      11.37      18.26       3.90
C      10.40      19.22       4.22
C      10.73      18.81       6.61
C      12.48      17.08       7.32
C      11.73      17.84       6.29
N      10.34      19.09       7.91
O      12.21      17.32       8.56
H      10.96      18.73       8.63
H       9.89      19.98       8.06
