94

C      33.55      47.35      21.16
C      33.52      43.09      15.09
C      45.98      46.46      20.85
C      45.80      47.25      21.99
H      36.51      46.96      19.32
H      31.74      42.59      16.22
C      25.33      50.54      20.21
C      32.37      47.61      19.07
H      32.97      46.33      17.46
H      33.71      47.64      22.19
H      35.14      41.68      10.39
H      34.81      42.33      12.43
H      38.93      46.82      19.73
C      34.28      46.30      20.61
C      28.81      51.01      21.62
C      26.23      52.02      22.02
H      45.05      45.16      19.39
C      47.32      46.46      20.16
H      36.38      42.71      18.66
H      27.89      49.82      20.05
C      35.23      44.30      16.33
C      33.17      43.65      17.44
H      33.63      39.40       7.09
H      31.64      48.13      18.45
N      30.08      50.40      21.48
N      42.59      43.97      19.67
H      31.04      40.29      10.41
N      42.52      45.17      20.34
N      31.64      41.48      12.48
H      40.96      46.55      20.87
N      31.77      42.02      13.67
H      32.55      43.63      18.33
N      34.89      44.91      18.67
N      32.11      49.88      22.02
H      29.43      52.38      23.17
N      41.37      43.67      19.31
H      42.50      46.63      22.54
N      31.13      50.69      22.33
N      32.87      41.57      11.86
H      38.83      42.57      19.06
O      36.01      39.93       6.96
O      29.95      39.14       8.54
H      46.62      47.83      22.39
H      35.41      43.77      14.27
O      25.63      49.86      19.17
H      29.76      48.96      19.90
O      31.37      38.54       6.86
O      25.81      53.62      24.21
O      28.00      54.27      24.22
H      35.02      45.78      21.21
H      36.20      44.79      16.36
O      43.06      48.25      24.19
H      25.23      52.38      22.20
O      24.15      50.79      20.64
O      47.41      45.82      19.06
O      36.68      41.51       8.47
O      48.25      47.13      20.73
C      33.12      46.59      18.50
C      40.50      44.66      19.72
C      36.28      44.84      18.97
O      45.25      48.91      24.20
C      44.91      45.74      20.29
C      35.84      40.67       7.99
C      32.22      39.78       8.68
C      32.72      43.07      16.25
C      33.77      42.17      12.70
C      34.52      40.55       8.68
C      39.06      44.68      19.45
C      33.06      42.46      13.85
C      43.66      45.81      20.91
C      33.07      41.02      10.57
C      34.78      43.71      15.15
C      27.02      53.55      23.81
C      37.01      46.00      19.29
C      32.02      40.36       9.93
C      32.57      48.01      20.40
C      31.73      49.06      20.98
C      43.47      46.58      22.06
C      38.32      43.53      19.13
C      26.47      51.07      21.02
C      28.60      52.02      22.57
C      27.75      50.57      20.82
C      36.95      43.61      18.90
C      34.09      45.92      19.26
C      38.38      45.91      19.53
C      34.32      41.14       9.94
C      34.43      44.27      17.49
C      27.31      52.51      22.77
C      44.27      48.22      23.75
C      30.43      49.39      20.63
C      33.48      39.86       8.06
C      31.09      39.10       7.98
C      44.53      47.32      22.59
C      41.24      45.61      20.39
