94

C      45.80      26.41      20.91
C      41.01      37.00      10.57
C      45.91      35.98      19.26
C      39.85      36.60       8.06
C      44.65      29.57      19.72
H      42.32      35.26      12.43
C      44.83      33.79      18.97
H      43.62      37.52      18.32
H      49.80      42.18      20.05
C      47.31      25.54      22.59
C      47.24      24.27      21.99
H      47.62      36.35      22.19
C      43.06      37.35      16.25
H      40.28      39.03      10.42
H      46.95      33.56      19.31
N      45.16      27.54      20.34
H      46.62      27.57      22.55
H      45.15      25.02      19.39
H      52.37      40.63      23.17
N      43.96      27.48      19.67
H      46.31      37.10      17.46
N      50.67      38.94      22.33
H      41.67      34.93      10.39
H      47.82      23.45      22.39
H      45.76      35.05      21.21
H      42.69      33.68      18.66
N      49.86      37.96      22.02
N      43.66      28.70      19.31
H      46.53      29.10      20.87
N      42.01      38.30      13.67
H      39.39      36.44       7.09
N      44.90      35.18      18.67
H      44.78      33.87      16.36
N      41.56      37.20      11.86
H      42.56      31.23      19.07
N      50.39      39.99      21.47
N      41.47      38.43      12.48
H      52.37      44.84      22.20
O      48.90      24.82      24.20
O      39.92      34.06       6.96
H      46.81      31.14      19.73
H      43.76      34.66      14.26
O      50.78      45.91      20.64
O      54.25      42.07      24.22
O      39.13      40.13       8.54
O      48.24      27.00      24.19
H      48.94      40.31      19.90
H      42.58      38.32      16.21
H      48.12      38.43      18.45
C      39.09      38.98       7.98
O      53.61      44.26      24.21
O      49.84      44.44      19.17
C      45.60      28.83      20.39
O      47.11      21.81      20.74
C      39.77      37.85       8.68
C      43.08      36.55      15.09
C      44.28      34.84      16.33
O      41.51      33.39       8.46
C      50.52      44.74      20.22
O      45.83      22.66      19.05
O      38.53      38.70       6.86
C      45.90      31.69      19.52
C      45.98      33.06      19.28
C      48.00      37.50      20.40
C      40.54      35.55       8.68
C      47.60      37.70      19.07
C      41.13      35.75       9.94
C      43.70      35.29      15.15
C      44.26      35.63      17.48
C      49.37      39.64      20.63
C      43.64      36.89      17.43
C      50.55      42.31      20.82
C      52.50      42.76      22.77
C      48.21      25.80      23.75
C      44.67      31.01      19.45
C      40.67      34.23       7.99
C      52.00      41.46      22.57
C      49.04      38.34      20.98
C      52.01      43.84      22.02
C      42.16      36.30      12.70
C      46.45      24.09      20.85
C      46.46      22.75      20.16
C      40.35      38.05       9.94
C      51.05      43.60      21.02
C      45.73      25.16      20.29
C      46.29      35.79      20.60
C      51.00      41.26      21.62
C      53.53      43.04      23.81
C      43.59      33.12      18.90
C      46.57      26.60      22.06
C      43.52      31.74      19.13
C      47.33      36.52      21.16
C      46.58      36.95      18.50
C      42.45      37.01      13.85
