13

C       8.12      10.46      10.82
N      10.46       9.07      10.21
H       7.84       8.96      12.35
C       9.64       8.63      11.19
O       6.68      11.37      12.47
C       6.91      11.26      11.23
H       9.94       7.71      11.68
C       8.93      10.87       9.76
C      10.11      10.17       9.51
H       8.66      11.74       9.15
H      10.81      10.48       8.74
O       6.23      11.79      10.30
C       8.48       9.31      11.54
