15

C       5.94       5.58      10.91
C       4.93       7.57      10.06
N       3.71       7.07      10.30
C       6.08       6.83      10.33
H       6.82       4.99      11.18
H       4.95       8.58       9.63
H       7.06       7.25      10.11
O       5.23       3.60      12.98
O       1.22       6.33      10.82
O       4.22       2.69      11.21
O       1.83       4.22      11.29
C       3.56       5.83      10.83
C       4.67       5.05      11.19
C       2.10       5.43      10.99
C       4.68       3.69      11.87
