42

H       8.72      13.13      11.89
O       7.06      11.45      11.19
H       6.68      11.13      15.11
O       6.44      10.08      12.90
O      10.59      14.90      12.30
O      10.03      16.09      14.14
H       9.16      14.57      15.94
O       7.72      12.82      17.05
H       5.78      12.04      17.07
H       7.08      10.86      17.49
H       6.44      13.36      19.20
H       6.91      10.40      19.95
H       5.61      11.59      21.94
H       6.55      13.04      21.53
O       7.65      11.39      22.23
H       6.21      13.23      23.72
H       9.45      10.39      23.67
O       6.66      14.37      27.44
C       6.99      11.12      12.45
C       9.95      15.03      13.40
C       7.61      12.07      13.42
C       8.48      13.06      12.95
C       9.04      13.95      13.87
C       8.74      13.86      15.23
C       7.90      12.84      15.70
C       7.33      11.94      14.79
C       6.74      11.90      17.60
C       6.60      12.29      19.03
C      10.29      10.77      26.17
C       6.53      14.09      26.20
C       9.05      11.34      25.58
C       8.24      12.25      26.28
C       7.24      12.94      25.58
C       6.98      12.66      24.22
C       7.76      11.71      23.55
C       8.81      11.07      24.22
C       6.54      11.94      21.49
C       6.70      11.46      20.08
O      11.24      10.58      25.30
O      10.41      10.51      27.40
H       8.44      12.49      27.32
O       5.81      14.85      25.43
