13

N       1.86       4.68      13.80
H       4.75       3.80      12.29
C       3.18       4.62      13.51
C       2.80       3.11      11.67
H       3.84       5.20      14.14
C       3.68       3.85      12.47
O       2.51       1.71       9.77
O       4.60       2.09      10.55
H       0.70       2.67      11.34
H      -0.06       4.04      13.30
C       3.34       2.23      10.57
C       1.43       3.21      11.95
C       0.99       3.98      13.02
