13

H       6.16       5.98       9.26
C       5.01       3.87       7.99
N       5.05       7.60       8.55
H       2.56       7.51       6.27
H       3.06       5.01       6.45
C       4.66       5.33       7.86
O       6.17       3.60       8.43
C       3.62       5.76       7.02
C       4.06       8.02       7.72
C       5.35       6.29       8.60
H       3.86       9.08       7.71
C       3.34       7.12       6.93
O       4.13       3.05       7.63
