456

C      14.59       2.97       0.24
C      13.39       2.40      26.73
C      12.91       1.14       0.17
C      13.63       0.50       1.20
C      14.73       1.10       1.85
C      15.27       2.31       1.32
C      15.22       4.02      26.51
C      16.13       3.74      25.44
C      16.92       4.80      24.90
C      16.90       6.06      25.54
C      15.98       6.38      26.56
C      15.12       5.35       0.01
C       5.65       4.02       9.24
C       5.77       5.35       8.73
C       4.92       6.39       9.17
C       4.00       6.09      10.20
C       3.97       4.83      10.85
C       4.75       3.76      10.32
C       6.25       2.96       8.51
C       5.55       2.31       7.44
C       6.07       1.09       6.90
C       7.18       0.48       7.54
C       7.92       1.11       8.57
C       7.45       2.38       9.01
C      11.03      11.24      18.24
C      12.12      10.48      17.73
C      13.45      10.69      18.17
C      13.65      11.64      19.20
C      12.58      12.30      19.85
C      11.26      12.16      19.32
C       9.81      11.25      17.51
C       9.60      12.18      16.44
C       8.28      12.34      15.90
C       7.20      11.69      16.54
C       7.38      10.73      17.57
C       8.71      10.51      18.01
C      -4.43      15.36       0.24
C      -3.23      15.94      26.73
C      -2.76      17.20       0.17
C      -3.50      17.84       1.20
C      -4.61      17.24       1.84
C      -5.13      16.02       1.30
C      -5.03      14.30      26.51
C      -5.94      14.56      25.44
C      -6.73      13.49      24.91
C      -6.69      12.23      25.56
C      -5.76      11.93      26.58
C      -4.91      12.97       0.02
C       4.55      14.30       9.24
C       4.45      12.97       8.73
C       5.31      11.94       9.17
C       6.23      12.25      10.20
C       6.26      13.52      10.84
C       5.46      14.58      10.30
C       3.92      15.35       8.51
C       4.60      16.01       7.44
C       4.07      17.23       6.91
C       2.95      17.82       7.55
C       2.24      17.17       8.58
C       2.72      15.91       9.02
C      -0.87       7.06      18.23
C      -1.97       7.81      17.73
C      -3.29       7.58      18.17
C      -3.48       6.63      19.20
C      -2.40       5.97      19.84
C      -1.08       6.13      19.30
C       0.36       7.07      17.51
C       0.59       6.15      16.43
C       1.91       6.01      15.91
C       2.98       6.68      16.55
C       2.78       7.62      17.58
C       1.45       7.84      18.02
C      -4.40       9.92       0.06
C      15.88       7.75      26.97
C      14.63       8.40       0.11
C      -5.65      10.57      26.98
C      -0.19      16.99       9.06
C       9.15       0.52       8.97
C      10.33       1.27       9.12
C       1.00      17.75       8.99
C       3.84       9.81      18.06
C       6.25       9.96      17.97
C       6.31       8.56      18.11
C       3.90       8.40      17.99
C       6.28       8.40       8.67
C       5.20      10.57       8.78
C       3.96       9.92       8.64
C       5.03       7.75       8.76
C      10.49       1.32      26.67
C      -1.53      17.79      26.77
C      -0.34      17.04      26.64
C      11.68       0.56      26.76
C      14.51       8.51      17.67
C      -4.42       8.35      17.77
C      -4.36       9.76      17.64
C      14.57       9.91      17.76
C       4.48      17.03       4.47
C      15.12       0.53       3.11
C      15.15       1.30       4.29
C       4.45      17.81       5.65
C       1.54       5.75      13.46
C       3.28       4.79      12.10
C       3.92       4.37      13.29
C       2.22       5.39      14.65
C      -6.77      13.94      22.47
C      12.88      12.92      21.11
C      12.20      12.56      22.29
C      -7.42      13.53      23.65
C       5.64       1.30       4.46
C      -5.00      17.81       3.09
C      -5.04      17.03       4.27
C       5.67       0.52       5.65
C       8.68      12.61      13.46
C       6.95      13.58      12.09
C       6.30      14.00      13.28
C       7.99      12.97      14.65
C      16.96       4.32      22.47
C      -2.69       5.34      21.09
C      -2.00       5.69      22.28
C      17.62       4.74      23.65
C      14.59       2.97      14.23
C      13.39       2.40      13.73
C      12.91       1.14      14.17
C      13.63       0.50      15.20
C      14.73       1.10      15.85
C      15.27       2.31      15.31
C      15.22       4.02      13.51
C      16.13       3.74      12.44
C      16.92       4.80      11.90
C      16.90       6.06      12.54
C      15.98       6.38      13.56
C      15.12       5.35      14.01
C       5.65       4.02      23.23
C       5.77       5.35      22.72
C       4.92       6.39      23.17
C       4.00       6.09      24.20
C       3.97       4.83      24.85
C       4.75       3.76      24.31
C       6.25       2.96      22.51
C       5.55       2.31      21.43
C       6.07       1.09      20.90
C       7.18       0.48      21.54
C       7.92       1.11      22.56
C       7.45       2.38      23.01
C      11.03      11.24       5.24
C      12.12      10.48       4.73
C      13.45      10.69       5.17
C      13.65      11.64       6.20
C      12.58      12.30       6.85
C      11.26      12.16       6.32
C       9.81      11.25       4.51
C       9.60      12.18       3.44
C       8.28      12.34       2.90
C       7.20      11.69       3.54
C       7.38      10.73       4.57
C       8.71      10.51       5.01
C      -4.43      15.36      14.23
C      -3.23      15.94      13.73
C      -2.76      17.20      14.17
C      -3.50      17.84      15.19
C      -4.61      17.24      15.83
C      -5.13      16.02      15.30
C      -5.03      14.30      13.51
C      -5.94      14.56      12.44
C      -6.73      13.49      11.91
C      -6.69      12.23      12.56
C      -5.76      11.93      13.58
C      -4.91      12.97      14.01
C       4.55      14.30      23.23
C       4.45      12.97      22.73
C       5.31      11.94      23.17
C       6.23      12.25      24.19
C       6.26      13.52      24.83
C       5.46      14.58      24.30
C       3.92      15.35      22.51
C       4.60      16.01      21.43
C       4.07      17.23      20.91
C       2.95      17.82      21.55
C       2.24      17.17      22.58
C       2.72      15.91      23.02
C      -0.87       7.06       5.23
C      -1.97       7.81       4.73
C      -3.29       7.58       5.17
C      -3.48       6.63       6.20
C      -2.40       5.97       6.84
C      -1.08       6.13       6.30
C       0.36       7.07       4.51
C       0.59       6.15       3.43
C       1.91       6.01       2.91
C       2.98       6.68       3.55
C       2.78       7.62       4.58
C       1.45       7.84       5.02
C      -4.40       9.92      14.06
C      15.88       7.75      13.97
C      14.63       8.40      14.11
C      -5.65      10.57      13.98
C      -0.19      16.99      23.06
C       9.15       0.52      22.96
C      10.33       1.27      23.11
C       1.00      17.75      22.99
C       3.84       9.81       5.06
C       6.25       9.96       4.97
C       6.31       8.56       5.11
C       3.90       8.40       4.99
C       6.28       8.40      22.67
C       5.20      10.57      22.77
C       3.96       9.92      22.64
C       5.03       7.75      22.76
C      10.49       1.32      13.67
C      -1.53      17.79      13.77
C      -0.34      17.04      13.64
C      11.68       0.56      13.76
C      14.51       8.51       4.67
C      -4.42       8.35       4.77
C      -4.36       9.76       4.64
C      14.57       9.91       4.76
C       4.48      17.03      18.47
C      15.12       0.53      17.10
C      15.15       1.30      18.29
C       4.45      17.81      19.65
C       1.54       5.75       0.46
C       3.28       4.79      26.10
C       3.92       4.37       0.29
C       2.22       5.39       1.65
C      -6.77      13.94       9.47
C      12.88      12.92       8.11
C      12.20      12.56       9.29
C      -7.42      13.53      10.65
C       5.64       1.30      18.46
C      -5.00      17.81      17.09
C      -5.04      17.03      18.27
C       5.67       0.52      19.64
C       8.68      12.61       0.46
C       6.95      13.58      26.09
C       6.30      14.00       0.28
C       7.99      12.97       1.65
C      16.96       4.32       9.47
C      -2.69       5.34       8.09
C      -2.00       5.69       9.28
C      17.62       4.74      10.65
H      12.91       2.86      25.95
H       2.55      18.15       1.61
H      -3.91       6.83      25.13
H      14.48       5.54       0.79
H      16.86       3.62       1.47
H      16.98       2.31       2.46
H      16.97       2.25      24.31
H      15.77       1.72      25.30
H       6.40       5.53       7.95
H       3.47       6.87      10.61
H      -3.10      18.12       7.13
H       7.93       2.83       9.79
H       5.08       1.74      10.46
H       3.89       2.29      11.46
H       3.84       2.33       6.31
H       3.99       3.63       7.30
H      11.96       9.84      16.95
H      14.59      11.71      19.61
H       6.27      11.77      16.13
H       8.86       9.86      18.79
H       9.34      12.88      19.46
H      10.41      13.63      20.46
H      10.47      13.66      15.31
H      11.53      12.88      16.30
H      -2.74      15.48      25.96
H       7.57       0.20       1.61
H      14.13      11.45      25.15
H      -4.27      12.79       0.79
H      -6.70      14.70       1.45
H      -6.84      16.01       2.43
H      -6.80      16.03      24.30
H      -5.61      16.58      25.28
H       3.80      12.78       7.96
H       6.77      11.49      10.61
H      13.23       0.18       7.15
H       2.24      15.45       9.80
H       5.10      16.60      10.44
H       6.31      16.07      11.43
H       6.31      16.02       6.30
H       6.19      14.71       7.28
H      -1.81       8.46      16.96
H      16.94       6.54      19.61
H       3.92       6.60      16.14
H       1.28       8.48      18.80
H       0.85       5.43      19.44
H      -0.22       4.65      20.42
H      -0.26       4.68      15.29
H      -1.33       5.44      16.28
H      -3.52      10.43      26.94
H      13.75       7.89       0.03
H      -0.19      15.98       8.93
H      10.33       2.29       9.04
H       2.96      10.32      17.94
H       7.19       8.05      18.03
H       7.16       7.90       8.79
H       3.08      10.43       8.73
H      10.49       2.33      26.79
H      -0.35      16.02      26.73
H      13.63       8.00      17.79
H      -3.48      10.26      17.73
H       4.37      16.02       4.49
H      15.05       2.32       4.27
H       0.71       6.35      13.48
H       4.86       3.96      13.27
H      -5.83      14.36      22.49
H      11.37      11.96      22.27
H       5.75       2.31       4.49
H      -4.93      16.02       4.25
H       9.50      12.01      13.49
H       5.36      14.41      13.25
H      16.03       3.91      22.49
H      -1.17       6.29      22.25
H      12.91       2.86      12.95
H       2.55      18.15      15.61
H      -3.91       6.83      12.13
H      14.48       5.54      14.79
H      16.86       3.62      15.46
H      16.98       2.31      16.46
H      16.97       2.25      11.31
H      15.77       1.72      12.30
H       6.40       5.53      21.94
H       3.47       6.87      24.61
H      -3.10      18.12      21.12
H       7.93       2.83      23.79
H       5.08       1.74      24.46
H       3.89       2.29      25.45
H       3.84       2.33      20.31
H       3.99       3.63      21.30
H      11.96       9.84       3.95
H      14.59      11.71       6.61
H       6.27      11.77       3.13
H       8.86       9.86       5.79
H       9.34      12.88       6.46
H      10.41      13.63       7.46
H      10.47      13.66       2.31
H      11.53      12.88       3.30
H      -2.74      15.48      12.96
H       7.57       0.20      15.61
H      14.13      11.45      12.15
H      -4.27      12.79      14.79
H      -6.70      14.70      15.45
H      -6.84      16.01      16.43
H      -6.80      16.03      11.30
H      -5.61      16.58      12.28
H       3.80      12.78      21.96
H       6.77      11.49      24.61
H      13.23       0.18      21.15
H       2.24      15.45      23.79
H       5.10      16.60      24.44
H       6.31      16.07      25.42
H       6.31      16.02      20.29
H       6.19      14.71      21.28
H      -1.81       8.46       3.96
H      16.94       6.54       6.61
H       3.92       6.60       3.14
H       1.28       8.48       5.80
H       0.85       5.43       6.44
H      -0.22       4.65       7.42
H      -0.26       4.68       2.29
H      -1.33       5.44       3.28
H      -3.52      10.43      13.94
H      13.75       7.89      14.03
H      -0.19      15.98      22.93
H      10.33       2.29      23.03
H       2.96      10.32       4.94
H       7.19       8.05       5.03
H       7.16       7.90      22.79
H       3.08      10.43      22.73
H      10.49       2.33      13.79
H      -0.35      16.02      13.73
H      13.63       8.00       4.79
H      -3.48      10.26       4.73
H       4.37      16.02      18.49
H      15.05       2.32      18.26
H       0.71       6.35       0.48
H       4.86       3.96       0.27
H      -5.83      14.36       9.49
H      11.37      11.96       9.27
H       5.75       2.31      18.49
H      -4.93      16.02      18.25
H       9.50      12.01       0.49
H       5.36      14.41       0.25
H      16.03       3.91       9.49
H      -1.17       6.29       9.25
N      16.45       2.81       1.81
N      16.28       2.47      24.95
N       4.58       2.50      10.81
N       4.38       2.81       6.95
N      10.25      12.93      19.81
N      10.62      12.94      15.95
N      -6.30      15.51       1.79
N      -6.11      15.82      24.94
N       5.61      15.85      10.79
N       5.78      15.53       6.94
N      -0.06       5.36      19.79
N      -0.42       5.38      15.94
N      -4.38       8.56      26.95
N      14.61       9.76       0.01
N      -1.37      17.65       8.95
N      11.52       0.62       9.02
N       5.00      10.51      17.95
N       5.15       7.86      18.01
N       6.30       9.76       8.79
N       3.93       8.56       8.75
N       9.30       0.66      26.78
N       0.85      17.70      26.74
N      15.68       7.81      17.79
N      -5.53      10.46      17.75
N       4.44      17.67       3.27
N      15.11       0.67       5.49
N       2.11       5.47      12.26
N       3.40       4.72      14.49
N      -7.29      13.59      21.27
N      12.76      12.84      23.49
N       5.68       0.67       3.26
N      -5.00      17.66       5.48
N       8.12      12.89      12.26
N       6.82      13.64      14.48
N      17.48       4.68      21.26
N      -2.56       5.42      23.48
N      16.45       2.81      15.81
N      16.28       2.47      11.95
N       4.58       2.50      24.81
N       4.38       2.81      20.95
N      10.25      12.93       6.81
N      10.62      12.94       2.95
N      -6.30      15.51      15.79
N      -6.11      15.82      11.94
N       5.61      15.85      24.79
N       5.78      15.53      20.94
N      -0.06       5.36       6.79
N      -0.42       5.38       2.94
N      -4.38       8.56      13.95
N      14.61       9.76      14.01
N      -1.37      17.65      22.94
N      11.52       0.62      23.01
N       5.00      10.51       4.95
N       5.15       7.86       5.01
N       6.30       9.76      22.78
N       3.93       8.56      22.74
N       9.30       0.66      13.78
N       0.85      17.70      13.74
N      15.68       7.81       4.79
N      -5.53      10.46       4.75
N       4.44      17.67      17.27
N      15.11       0.67      19.49
N       2.11       5.47      26.26
N       3.40       4.72       1.49
N      -7.29      13.59       8.27
N      12.76      12.84      10.49
N       5.68       0.67      17.26
N      -5.00      17.66      19.47
N       8.12      12.89      26.26
N       6.82      13.64       1.48
N      17.48       4.68       8.26
N      -2.56       5.42      10.48
