27

H      10.41       8.67       3.88
H      11.67       4.20       5.60
H       8.70       5.22       3.97
H       9.20       4.95       6.12
H      12.03       8.02       3.56
H      12.39       7.92       5.80
H      10.70       8.42       6.14
H       8.86       6.67       6.46
H      12.40       5.53       3.16
H      12.91       5.46       5.36
H       8.41       7.97       4.66
C      11.47       5.32       3.74
C      10.46       6.47       3.53
C      10.97       6.25       6.06
C       9.47       5.99       5.83
C      11.83       5.24       5.23
C      11.32       6.01       7.46
C      10.13       6.59       2.10
C      11.08       7.79       4.08
C      11.32       7.68       5.59
C       9.14       6.18       4.33
Cl      10.86       3.73       3.16
O      10.35       7.69       1.54
O       9.44       5.67       1.58
O      12.27       6.69       7.95
O      11.00       4.87       7.90
O       8.17       7.18       4.12
