15

C      10.65       6.71      16.90
C      12.09       5.63      11.39
Cl      11.85       7.97      14.81
O      10.85       3.84      13.23
C      12.25       5.69      12.85
C      11.41       6.49      15.67
H      11.22       4.41      15.81
C      11.51       5.24      15.16
C      11.57       4.92      13.71
H      12.98       6.40      13.20
O      12.38       6.72      10.74
O      11.12       4.90      10.91
O       9.79       5.84      17.26
O      10.68       7.87      17.43
H      10.38       3.40      13.98
