14

C       3.01       2.21      11.25
O       4.16       2.55      10.84
Cl       5.83       1.82      15.22
Cl       5.50       0.64      12.33
O       1.95       2.74      10.79
H       2.10       1.87      15.00
C       2.92       1.48      12.49
C       3.10       1.76      15.40
C       4.18       1.59      14.60
H       1.95       1.55      12.97
C       4.05       1.24      13.18
O       2.02       0.70      17.17
O       4.23       0.92      17.23
C       3.11       1.20      16.73
