26

H       3.43       6.07      13.48
H       5.00       7.94      16.90
H       2.02       4.29      14.70
H       2.00       4.33      16.48
H       2.97       2.19      15.49
H       4.27       3.13      14.79
C       4.23      -0.25      18.09
C       5.29       1.75      16.99
C       4.37       2.96      16.95
C       3.46      -1.18      16.32
H       4.52      -0.02      19.11
H       2.95      -1.90      15.68
H       5.93       1.76      17.88
H       5.95       1.72      16.11
H       4.98       3.86      17.10
H       3.67       2.92      17.80
N       4.43       7.36      14.90
N       3.86       6.15      16.72
N       3.37       5.57      15.58
N       3.52      -1.31      17.68
N       4.09      -0.11      15.87
N       4.57       0.47      17.01
C       3.72       6.29      14.50
C       4.49       7.23      16.27
C       2.65       4.30      15.60
C       3.58       3.09      15.64
