16

H       3.34      10.13       6.68
H       4.39       8.13       5.59
C       4.82       7.14       7.46
C       4.71       7.21       8.85
C       4.14       8.32       9.48
C       3.67       9.37       8.67
C       3.73       9.31       7.28
C       4.32       8.20       6.67
C       5.44       5.94       6.82
C       4.12       8.37      10.98
O       5.96       5.05       7.56
O       5.42       5.86       5.54
O       3.33       7.62      11.63
O       4.97       9.16      11.51
Br       2.94      10.94       9.53
H       5.09       6.38       9.44
