24

N       7.87      11.85       1.46
N       7.67      12.69       2.48
N       6.95      17.34       7.87
N       6.11      16.32       7.67
N       1.46      10.93       6.95
N       2.48      11.12       6.11
H       7.29      14.35       4.45
H       4.45      14.35       7.29
N       6.95      10.93       1.46
N       6.11      11.12       2.48
H       4.45      11.51       4.45
N       1.46      11.85       7.87
N       2.48      12.69       7.67
N       7.87      17.34       6.95
N       7.67      16.32       6.11
C       6.58      12.22       3.08
C       5.98      12.82       4.27
C       6.58      15.71       6.58
C       5.98      14.52       5.98
C       3.08      12.22       6.58
C       4.27      12.82       5.98
C       6.54      13.96       4.84
C       4.84      13.96       6.54
C       4.84      12.26       4.84
