24

N       7.87       6.95      17.34
N       7.67       6.11      16.32
N       6.95       1.46      10.93
N       6.11       2.48      11.12
N       1.46       7.87      11.85
N       2.48       7.67      12.69
H       7.29       4.45      14.35
H       4.45       4.45      11.51
N       6.95       7.87      17.34
N       6.11       7.67      16.32
H       4.45       7.29      14.35
N       1.46       6.95      10.93
N       2.48       6.11      11.12
N       7.87       1.46      11.85
N       7.67       2.48      12.69
C       6.58       6.58      15.71
C       5.98       5.98      14.52
C       6.58       3.08      12.22
C       5.98       4.27      12.82
C       3.08       6.58      12.22
C       4.27       5.98      12.82
C       6.54       4.84      13.96
C       4.84       4.84      12.26
C       4.84       6.54      13.96
