20

Mn       2.23       6.57      19.15
Mn      -1.53      10.30      17.29
C       0.84       8.31      16.95
C       3.35       8.30      16.86
C       3.17       7.83      21.92
C       1.94       9.27      20.59
C       4.60       4.57      19.48
C      -0.05       4.57      19.58
C      -0.60      11.56      14.52
C      -1.83      13.00      15.85
N       2.47       8.04      20.77
N      -1.29      11.77      15.67
O       0.74       7.67      18.05
O       0.01       9.18      16.53
O       4.13       9.22      16.44
O       3.56       7.59      17.89
O       4.50       3.94      18.39
O       3.78       5.45      19.91
O       0.73       5.49      20.00
O       0.17       3.86      18.55
