20

Mn       0.80       4.63       7.00
Mn       4.56       0.90       5.14
C       2.19       2.89       4.81
C      -0.32       2.89       4.72
C      -0.14       3.36       9.78
C       1.09       1.93       8.45
C      -1.58       6.62       7.34
C       3.07       6.62       7.43
C       3.63      -0.37       2.37
C       4.85      -1.81       3.70
N       0.55       3.15       8.63
N       4.32      -0.58       3.52
O       2.29       3.53       5.90
O       3.01       2.02       4.38
O      -1.10       1.98       4.29
O      -0.54       3.61       5.74
O      -1.48       7.26       6.24
O      -0.75       5.75       7.76
O       2.30       5.71       7.85
O       2.86       7.34       6.40
