30

H       2.50       2.88       5.80
H       0.62       1.95       6.74
H      -3.09       3.88       7.73
H       0.62       5.80       8.71
H       2.51       4.86       9.65
H       6.22       3.87       7.72
O       4.53       2.32       4.50
O       6.37       2.23       5.81
O       6.38       5.50       9.63
O       4.55       5.40      10.96
O      -1.40       7.10       9.25
O      -3.26       5.81       9.31
O      -3.26       1.96       6.13
O      -1.43       0.63       6.20
C       5.16       2.57       5.58
C       4.42       3.27       6.67
C       3.02       3.30       6.66
C       2.30       3.87       7.72
C       0.82       3.87       7.72
C       0.10       2.80       7.16
C      -1.30       2.82       7.13
C      -2.05       1.72       6.45
C      -2.00       3.87       7.73
C      -1.30       4.93       8.32
C      -2.04       6.03       9.00
C       0.10       4.94       8.29
C       3.03       4.44       8.79
C       4.43       4.47       8.77
C       5.13       3.87       7.72
C       5.17       5.16       9.87
