30

H       3.75      12.61       5.80
H       5.65      13.55       6.73
H       9.35      11.61       7.73
H       5.63       9.70       8.71
H       3.75      10.63       9.64
H       0.04      11.62       7.72
O       1.72      13.16       4.49
O      -0.11      13.26       5.81
O      -0.12      10.00       9.63
O       1.71      10.09      10.96
O       7.67       8.38       9.25
O       9.52       9.67       9.31
O       9.53      13.52       6.12
O       7.69      14.84       6.19
C       1.10      12.92       5.58
C       1.84      12.22       6.67
C       3.24      12.19       6.66
C       3.96      11.62       7.72
C       5.44      11.62       7.73
C       6.16      12.69       7.16
C       7.56      12.67       7.13
C       8.31      13.76       6.44
C       8.27      11.62       7.73
C       7.56      10.56       8.32
C       8.30       9.46       9.00
C       6.16      10.56       8.29
C       3.23      11.05       8.79
C       1.83      11.02       8.77
C       1.13      11.62       7.72
C       1.09      10.33       9.87
