26

C       1.51       3.60       1.40
C       0.64       2.57       1.06
C      -0.61       2.47       1.69
C      -0.93       3.46       2.63
C      -0.02       4.47       2.91
C      -1.53       1.32       1.37
C      -1.16       0.05       2.19
C      -0.73       0.86       5.88
C      -0.42       0.59       4.55
C      -1.44       0.24       3.65
C      -2.74       0.14       4.16
C      -2.98       0.42       5.50
N       1.20       4.54       2.32
N      -1.99       0.79       6.35
H       2.47       3.70       0.91
H       0.93       1.87       0.28
H      -1.90       3.45       3.13
H      -0.26       5.28       3.60
H      -1.45       1.09       0.30
H      -2.57       1.59       1.57
H      -1.74      -0.80       1.81
H      -0.10      -0.20       2.04
H       0.03       1.12       6.61
H       0.61       0.66       4.22
H      -3.57      -0.16       3.53
H      -3.97       0.31       5.95
