26

H       7.36       0.86      11.78
H       8.91      -0.97      11.15
H      11.74       0.62      13.99
H      10.10       2.45      14.46
H      11.29      -1.75      11.17
H      12.41      -1.24      12.43
H      11.58      -3.64      12.67
H       9.94      -3.04      12.90
C       8.33       0.76      12.27
H       9.22      -2.18      15.08
C       9.20      -0.27      11.93
C      10.45      -0.37      12.56
C      10.77       0.62      13.50
C       9.86       1.64      13.77
C      11.36      -1.52      12.24
C      10.99      -2.79      13.05
N       8.64       1.70      13.19
C      10.26      -2.25      15.42
C      11.27      -2.60      14.52
C      12.57      -2.70      15.03
N      11.83      -2.05      17.22
C      12.81      -2.42      16.37
H      13.40      -3.00      14.40
H      13.80      -2.53      16.82
C      10.56      -1.98      16.75
H       9.80      -1.72      17.47
