16

O      -0.72       2.14       9.06
O       0.28       0.13       8.79
H       2.24       4.37      12.17
C       3.52       2.71      11.67
C       3.64       1.52      10.94
C       2.33       3.45      11.59
C       4.66       3.23      12.49
H       0.35       3.56      10.72
H       4.57       0.96      11.01
H       2.68       0.15       9.57
C       2.59       1.07      10.14
C       1.40       1.81      10.06
C       1.28       3.01      10.79
C       0.26       1.30       9.24
O       5.65       2.38      12.68
O       4.65       4.39      12.94
