110

Cd       2.72       7.09       4.35
Cd       3.26       0.03       7.38
Cd       2.99       3.56       5.87
Cd       2.46      10.64       5.87
Si      -3.79       7.12      10.69
Si       9.77      -0.00       1.04
H      -4.57       8.47       8.19
H       6.56       8.20       6.59
H       4.88       5.14       9.10
H      -6.28       5.42      10.72
H       4.67       0.83       1.43
H       4.42       2.73       2.99
H       1.27       4.36       0.56
H      -4.48      -4.61      10.71
H      -3.00       5.75       8.20
H      -1.10       6.02       6.60
H       1.63      -5.09       9.09
H      -0.23      -5.35      10.72
H       1.84      -0.82       1.43
H       1.03      11.45       2.99
H       4.17       9.81       0.56
H      -2.03       4.68      10.71
H      10.55      -1.35       3.54
H      -0.57      -1.08       5.14
H       1.10       1.98       2.63
H      12.26       1.70       1.01
H       1.31       6.29      10.30
H       1.56       4.38       8.74
H       4.71       2.76      11.17
H      10.46      11.73       1.02
H       8.98       1.37       3.53
H       7.09       1.10       5.13
H       4.35      12.20       2.64
H       6.21      12.47       1.01
H       4.14       7.94      10.30
H       4.95      -4.33       8.74
H       1.81      -2.69      11.17
H       8.01       2.44       1.02
C      -5.28       6.96       9.58
C       7.66       7.75       8.41
C       6.61       7.60       7.51
C       5.62       6.63       7.75
C       5.66       5.87       8.92
C       6.71       6.04       9.83
C       4.54       6.38       6.73
C       3.10       1.49       0.09
C       3.93       1.60       1.22
C       3.79       2.66       2.11
C       2.82       3.65       1.88
C       2.01       3.58       0.73
C      -3.83      -4.54      11.58
C       2.64       4.77       2.84
C      -2.29       7.27       9.58
C      -2.21       6.47       8.42
C      -1.16       6.61       7.51
C      -0.17       7.58       7.75
C      -0.21       8.35       8.92
C      -1.26       8.19       9.83
C       0.91       7.83       6.73
C       2.35      12.67       0.09
C       1.52      12.58       1.22
C       1.66      11.52       2.11
C       2.63      10.53       1.88
C       3.44      10.59       0.73
C      -2.68       4.62      11.58
C       2.81       9.41       2.84
C      11.26       0.16       2.15
C      -1.68      -0.64       3.32
C      -0.62      -0.48       4.23
C       0.36       0.48       3.98
C       0.32       1.25       2.81
C      -0.73       1.08       1.90
C       1.44       0.74       5.00
C       2.88       5.62      11.64
C       2.05       5.52      10.51
C       2.19       4.46       9.62
C       3.16       3.47       9.85
C       3.97       3.54      11.00
C       9.81      11.66       0.15
C       3.34       2.35       8.90
C       8.27      -0.15       2.15
C       8.19       0.65       3.32
C       7.14       0.50       4.22
C       6.15      -0.46       3.98
C       6.19      -1.23       2.81
C       7.24      -1.07       1.90
C       5.07      -0.71       5.00
C       3.63      -5.56      11.64
C       4.46      -5.46      10.51
C       4.32      -4.40       9.62
C       3.35      -3.41       9.85
C       2.54      -3.47      11.00
C       8.66       2.50       0.15
C       3.17      -2.30       8.89
O       4.43       7.22       5.78
O       3.83       5.33       6.91
O       3.28       4.73       3.99
O       1.94       5.77       2.53
O       1.02       6.99       5.78
O       1.63       8.88       6.92
O       2.18       9.45       4.00
O       3.50       8.41       2.53
O       1.55      -0.10       5.95
O       2.15       1.79       4.82
O       2.70       2.39       7.74
O       4.04       1.35       9.20
O       4.97       0.13       5.95
O       4.35      -1.76       4.82
O       3.80      -2.33       7.73
O       2.48      -1.29       9.20
