156

C       7.31      12.86      46.19
C       6.80      11.57      46.53
C       6.64      10.90      44.20
C       7.03      12.19      43.80
C       7.33      13.15      44.79
C       7.70      12.98      16.00
C       8.42      11.04      17.98
C       8.58      10.72      16.62
C       8.19      11.68      15.66
C      14.97       0.37      15.00
C      14.10       1.45      15.34
C      13.44       2.24      14.37
C      13.61       1.92      13.01
C       7.07      13.47      31.59
C       7.33      13.31      32.99
C      14.14       0.01      33.98
C      12.83       0.31      33.58
C      12.47       0.33      32.22
C      13.49       0.19      31.25
C       7.13      13.40      40.29
C      14.41       0.85      39.38
C      13.70       1.97      39.77
C      14.87       0.00      41.69
C      14.00       0.16       7.22
C      15.08       0.20       6.32
C      14.91       0.18       4.92
C       7.17      12.14      23.78
C       6.58      10.95      24.18
C       7.66      12.96      26.10
C      10.14       7.60      15.31
C      10.54       6.84      14.18
C      10.26       7.21      12.87
C       9.46       8.84      15.24
C       8.03      12.33      18.39
C      14.53       0.94      12.61
C       7.96      12.13      38.42
C       7.38      13.04      37.51
C       7.49      12.90      36.11
C      11.15       5.95      16.73
C      11.55       5.19      15.61
C      12.29       4.00      15.73
C       6.45      10.60      45.56
C       5.50       8.72       0.13
C      10.40       0.51      30.84
C       4.84       7.49       0.02
C       8.99       0.54      30.91
C       8.59       0.64      28.47
C       0.02       0.26       0.40
C      15.35       0.11       1.80
C       0.42       0.87       2.79
C       1.34       1.85       2.39
C       1.53       2.15       1.03
C       0.90       1.34       0.06
C       7.71      13.28      17.39
C      15.21       0.20      13.60
C      -7.49      13.48      30.60
C       1.68       0.19      30.94
C       2.70       0.36      29.96
C       2.34       0.38      28.61
C       1.03       0.07      28.20
C       7.84      13.35      29.20
C      -0.08       0.24       9.09
C       1.01       0.22       8.19
C       2.34       0.28       8.58
C       0.05       0.24      10.50
C       7.73      13.08      24.69
C       0.61       0.92      22.82
C      -7.68      13.47      21.91
C       0.20       0.12      20.52
C       3.45       5.06      46.50
C       4.38       6.76       1.14
C       3.91       5.78      45.37
C       3.73       5.36      44.06
C       2.72       3.86      46.43
C       7.05       0.49      32.33
C       6.20       0.52      31.21
C       8.14       0.58      29.77
C       4.79       0.48      31.33
H       6.88      12.93       2.13
H       6.74      11.27       0.72
H       8.22      11.37      14.69
H       8.69      10.35      18.69
H      13.87       1.65      16.31
H      13.14       2.49      12.30
H      13.21       0.31      30.28
H       6.91      13.12      28.87
H      12.02       2.40      40.52
H      14.61       0.89      42.12
H      13.04       0.15       6.90
H       6.19      13.48       4.52
H       8.08      10.07      24.92
H       7.03      12.28      26.53
H       9.26       9.26      14.33
H       8.45      11.29      38.09
H       8.13      12.20      35.71
H      11.37       5.65      17.68
H      12.58       3.66      16.65
H       6.38      10.21      43.49
H      12.10       0.42      34.29
H       5.65       9.14       1.06
H       8.38       6.97      12.86
H       9.35       2.37      28.47
H      10.87       0.47      29.93
H       4.53       7.10       2.09
H       1.15       1.51      45.88
H       1.80       2.43       3.10
H      -0.21       0.58      44.47
H      -0.35       0.70      17.72
H      -7.51      13.02      13.27
H      -7.33      13.08      33.32
H       1.97       0.28      31.91
H       3.06       0.50      27.90
H       2.36       2.03       9.32
H       0.95       0.03      10.93
H       1.08       1.77      22.50
H       0.46       1.02      20.12
H       4.87       3.85      44.07
H       2.45       3.47      45.52
H       6.68       0.46      33.28
H       4.36       0.40      32.25
N       7.06      12.40      42.46
N      12.68       3.33      14.62
N       9.13       9.51      16.36
N       6.53      13.43      35.32
N       7.78      12.32      39.75
N      14.26       0.22       8.56
N       7.33      12.36      22.45
N      11.22       5.68      14.39
N      14.69       0.80      11.27
N       8.01      12.54      19.72
N      14.53       0.60      38.04
N      10.47       7.11      16.53
N       5.88       9.40      45.81
N      11.15       0.46      31.96
N       4.58       6.95      45.58
N       8.39       0.50      32.13
N       2.30       3.23       0.77
N       0.25       0.74       4.13
N       0.83       0.00      26.86
N       4.02       0.48      30.22
N       0.74       0.24       6.85
N       0.53       0.67      24.15
N       3.72       5.60       0.94
N       6.79       0.57      29.99
O      12.60       1.77      40.31
O       7.26      10.00      24.59
O       9.13       7.05      12.39
O       5.54      10.63      23.62
O       9.04       1.69      28.00
O      -1.73       3.01      39.15
O      -4.67      13.04       8.03
O       2.82       1.35       8.99
O       3.34       6.18      43.25
O       4.44       4.46      43.59
O      11.17       7.13      12.06
O       0.27      13.41      27.64
