13

H       6.58      12.45      38.56
H       5.46      14.61      38.78
S       5.16      13.41      35.57
C       6.57      11.10      36.09
C       6.03      12.36      36.61
C       6.14      12.87      37.86
C       5.50      14.13      37.98
C       4.97      14.56      36.81
C       4.36      15.88      36.55
O       6.40      10.84      34.87
O       7.21      10.38      36.91
O       3.76      16.06      35.48
O       4.51      16.74      37.45
