13

C      11.17      12.57      17.36
C      10.39      11.34      17.12
O       9.75      11.21      16.06
O      12.66      16.26      15.38
C      11.87      12.90      18.46
S      11.26      13.76      16.14
O      13.49      16.71      17.41
H      13.08      14.53      18.98
H      11.92      12.38      19.23
C      12.87      16.00      16.59
C      12.28      14.73      17.10
C      12.54      14.16      18.32
O      10.39      10.44      18.01
