13

H       5.11       6.14      45.81
O       7.18       7.25      49.04
H       4.06       3.95      45.91
C       4.05       2.46      48.28
C       4.68       3.71      47.80
C       4.53       4.32      46.62
C       5.14       5.59      46.56
C       5.79       5.90      47.69
C       6.45       7.20      48.02
O       3.42       1.81      47.39
S       5.65       4.66      48.83
O       6.16       8.15      47.27
O       4.19       2.17      49.48
