13

O      11.12       7.47      18.46
O      10.26       7.86      16.44
O      13.96       2.38      17.82
O      13.49       1.69      15.80
C      10.88       7.18      17.27
C      11.42       5.88      16.77
C      11.19       5.32      15.55
C      11.85       4.08      15.40
S      12.42       4.90      17.74
C      12.57       3.73      16.51
C      13.39       2.53      16.72
H      10.66       5.71      14.89
H      11.81       3.56      14.63
