13

C      10.46      11.10      10.77
O      10.63      10.84       9.55
O       9.82      10.38      11.59
O      13.27      16.06      10.16
O      12.52      16.74      12.13
H      10.45      12.45      13.24
H      11.57      14.61      13.46
S      11.87      13.41      10.25
C      11.00      12.36      11.29
C      10.89      12.87      12.54
C      11.53      14.13      12.66
C      12.06      14.56      11.49
C      12.67      15.88      11.23
