13

C       1.63       2.46      22.95
S       0.02       4.66      23.51
C       1.15       4.32      21.30
C       0.99       3.71      22.48
C       0.53       5.59      21.24
C      -0.11       5.90      22.37
H       1.62       3.95      20.59
O       1.49       2.17      24.15
O       2.26       1.81      22.07
C      -0.77       7.20      22.70
H       0.57       6.14      20.49
O      -1.50       7.25      23.72
O      -0.49       8.15      21.95
