13

S       5.11       5.00      26.11
O       6.18       7.67      27.00
O       7.18       8.12      25.07
O       3.76       2.39      25.94
O       4.51       1.83      23.93
C       6.51       7.39      25.82
C       6.05       6.12      25.24
C       6.34       5.66      24.00
C       5.77       4.39      23.74
C       5.11       3.91      24.81
C       4.40       2.62      24.91
H       6.85       6.13      23.39
H       5.85       3.94      22.93
