13

C       0.20       2.60      45.24
C      -0.33       3.93      44.85
O       0.52       1.87      44.28
C      -0.05       4.55      43.68
O       0.32       2.29      46.44
C      -0.74       5.78      43.52
C      -1.53       6.07      44.57
C      -2.43       7.23      44.71
O      -2.61       8.00      43.74
O      -3.00       7.41      45.81
H       0.53       4.21      43.04
H      -0.65       6.32      42.77
S      -1.42       4.87      45.79
