13

S       0.31      13.63      38.71
H      -1.58      12.97      41.50
H      -0.37      15.06      41.77
O       1.52      16.76      40.75
O       1.99      16.10      38.70
O      -1.43      11.13      38.05
O      -1.54      10.61      40.19
C       1.38      15.97      39.78
C       0.47      14.81      39.94
C      -0.31      14.52      41.02
C      -1.01      13.32      40.85
C      -0.78      12.72      39.66
C      -1.31      11.39      39.24
