13

S       5.21       4.61      31.82
C       4.23       3.64      30.82
C       3.67       2.38      31.36
O       5.93       7.97      29.97
O       6.59       7.26      31.98
O       3.02       1.67      30.53
O       3.79       2.13      32.57
C       6.03       7.11      30.88
C       5.32       5.82      30.62
C       4.65       5.47      29.50
C       4.01       4.22      29.60
H       4.62       5.99      28.74
H       3.50       3.84      28.93
