13

C       2.02      16.05      22.82
C       1.08      14.91      23.02
C       0.21      14.70      24.04
C      -0.50      13.48      23.88
C      -0.16      12.81      22.78
C      -0.67      11.49      22.36
S       1.01      13.66      21.87
O       2.17      16.88      23.73
H       0.10      15.27      24.76
O       2.65      16.11      21.75
H      -1.15      13.18      24.49
O      -1.31      10.85      23.20
O      -0.41      11.10      21.20
