13

S       4.61       4.90      43.06
H       6.37       5.71      40.21
H       5.22       3.56      39.95
O       5.91       7.47      43.78
O       6.77       7.86      41.76
O       3.07       2.38      43.14
O       3.54       1.69      41.12
C       6.15       7.18      42.59
C       5.61       5.88      42.09
C       5.84       5.32      40.87
C       5.18       4.08      40.72
C       4.46       3.73      41.83
C       3.64       2.53      42.04
