13

S      11.33      13.43      27.13
O       9.86      10.93      26.49
O       9.10      10.58      28.57
O      12.86      16.02      26.92
O      11.84      16.92      28.70
C       9.73      11.22      27.69
C      10.36      12.47      28.16
C      10.20      13.09      29.34
C      10.82      14.35      29.40
C      11.46      14.66      28.27
C      12.12      15.96      27.94
H       9.73      12.71      30.06
H      10.78      14.91      30.15
