40

H       3.96      11.85       1.97
H       4.98      18.48       3.70
H       2.78      14.24       5.08
O       4.99      11.07       7.08
O       2.28      18.96       6.52
H       2.75      12.56       7.24
H       5.77      16.29       2.75
O       3.23      19.91       4.74
H       2.30      14.23       9.03
O       4.73      13.99       3.21
H       5.18      13.43       5.79
O       3.70       8.11       3.33
O       2.83      15.61      11.00
H       6.57      11.68       9.03
O       3.15       9.49       1.61
O       4.75      15.12      12.04
H       4.19       9.26       5.42
H       6.12      13.37      10.81
H       2.11      16.40       6.13
C       3.24      13.68       9.02
C       4.18      13.92      10.03
C       4.70      12.04       8.03
C       5.64      12.25       9.04
C       4.85      12.59       5.19
C       4.05      10.42       3.60
C       4.17      11.70       3.03
C       4.57      12.76       3.83
C       2.99      18.88       5.46
C       3.29      15.16       4.81
C       3.50      17.57       4.97
C       4.96      16.33       3.48
C       3.49      12.75       8.02
C       4.32      15.15       3.86
C       3.60       9.25       2.78
C       3.91      14.94      11.10
C       5.38      13.19      10.03
C       4.69      11.32       5.75
C       2.90      16.37       5.38
C       4.53      17.54       4.01
C       4.30      10.24       4.97
