13

H       6.95       7.79      10.14
H       5.63       8.05      11.33
O       5.51       5.10      10.15
O       4.54       6.95       9.26
H       6.88       7.73      13.48
H       8.23       8.08      12.35
O       9.29       6.93      14.40
O       8.38       5.09      13.43
C       5.36       6.35      10.02
C       6.25       7.29      10.83
O       6.96       6.52      11.79
C       8.50       6.34      13.60
C       7.62       7.28      12.80
