43

Zn       9.74      -2.42      11.37
Zn       6.67      -2.63      13.16
Zn      10.04      -5.20       9.10
Zn      12.46      -2.45      13.63
Zn       9.86       0.60       9.37
C       9.56       2.43       7.60
C       6.39      -5.17      11.33
C       7.22      -5.77      10.35
C       4.84      -2.90      14.91
N       8.20       0.20      10.48
N       8.20      -0.88      11.28
N       7.05      -0.99      11.94
N       8.40      -2.65      14.24
N       9.55      -2.56      13.56
N      10.60      -2.60      14.39
N      12.27      -0.84      12.43
N      11.24      -0.79      11.58
N      11.30       0.30      10.82
N      11.47      -4.95      10.49
N      11.34      -3.94      11.36
N      12.38      -3.89      12.19
N       8.34      -4.99      10.25
N       8.22      -3.98      11.12
N       7.05      -4.06      11.78
N      10.11      -3.36       8.27
N       9.96      -2.30       9.08
N      10.07      -1.16       8.38
O       9.60      -6.83       8.10
O       5.03      -1.94      14.05
C       6.98       0.82      10.63
C       6.25       0.06      11.57
O      10.57       2.19       8.40
O      13.93      -2.97      14.81
C      10.12      -2.72      15.66
C       8.71      -2.77      15.56
C      13.04       0.27      12.22
C      12.42       1.00      11.17
C      13.24      -4.90      11.86
C      12.66      -5.58      10.76
C      10.31      -1.48       7.08
C      10.34      -2.89       7.00
C      14.03      -1.98      15.67
C      10.62      -7.03       7.31
