23

Cd      11.08       4.77      11.63
Cd      16.09       9.91      10.65
Cd      13.58       7.34      11.14
C      13.53      10.11      12.66
C      17.13       7.33      10.99
C      14.12       9.32       8.56
C      17.62      12.12      11.34
O      13.86       5.83       9.53
O      12.66       4.00      10.20
O      11.20       7.01      10.81
O      10.34       2.61      11.95
O      11.85       4.95      13.77
O      13.68       5.61      12.64
O      13.31       8.85      12.75
O      14.50      10.68      12.08
O      15.97       7.68      11.47
O      16.83      12.08      10.33
C      13.64       4.57       9.62
O      15.32       9.74       8.52
O      13.49       9.08       9.64
C      10.04       7.35      11.29
C      13.05       5.37      13.73
C       9.54       2.57      10.94
