102

Ca      12.63      12.97       5.32
Ca      12.63       6.98       1.62
Ca       8.74       1.37       8.56
Ca       8.74       7.36      12.27
Ca      13.71       9.97       3.47
Ca       7.66       4.36      10.42
H      10.07       2.69       3.41
H      11.19       4.22       2.07
H       7.24       2.74      13.66
H       6.17      12.43       1.18
H      11.56      10.80       0.90
H       5.19       1.91       1.32
H       4.73       4.48       3.53
H       5.85       2.95       4.87
H       7.24       5.99       7.17
H       6.17       7.52       5.77
H      11.56       9.14       6.05
H      10.53       5.26       5.62
H      11.30      11.65      10.47
H      10.17      10.12      11.82
H      14.13      11.60       0.22
H      15.20       1.91      12.71
H       9.81       3.53      12.99
H      16.18      12.43      12.57
H      16.64       9.86      10.36
H      15.52      11.39       9.01
H      14.13       8.35       6.72
H      15.20       6.82       8.12
H       9.81       5.20       7.84
H      10.84       9.08       8.26
C      15.25      12.83       3.29
C      10.67       1.02       2.42
C      10.59       2.38       2.68
C      11.25       3.29       1.88
C      12.00       2.85       0.79
C       7.36       5.41      13.80
C       1.40       1.49       0.52
C       0.75       0.58       1.35
C      11.58      12.72       2.76
C      11.10      12.74       1.33
C      11.20      11.61       0.54
C       5.25       1.13       0.78
C       4.57       7.12       3.66
C       5.33       6.15       4.52
C       5.25       4.79       4.26
C       5.91       3.88       5.06
C       6.66       4.32       6.16
C       7.36       3.32       7.03
C       6.74       5.68       6.42
C       6.09       6.59       5.60
C      11.58       7.22       4.19
C      11.10       7.21       5.61
C      11.20       8.34       6.41
C      10.59       6.04       6.16
C       6.12       1.51      10.60
C      10.69      13.32      11.46
C      10.78      11.96      11.21
C      10.12      11.05      12.01
C       9.37      11.49      13.10
C      14.01       8.92       0.09
C      19.97      12.85      13.36
C      20.62      13.75      12.54
C       9.79       1.61      11.13
C      10.27       1.60      12.56
C      10.17       2.73      13.35
C      16.12      13.21      13.10
C      16.80       7.22      10.23
C      16.04       8.19       9.37
C      16.12       9.55       9.62
C      15.46      10.46       8.82
C      14.71      10.02       7.73
C      14.01      11.02       6.86
C      14.63       8.66       7.47
C      15.27       7.75       8.29
C       9.79       7.12       9.70
C      10.27       7.13       8.27
C      10.17       6.00       7.48
C      10.78       8.30       7.73
O       9.27       0.56       4.26
O      15.26      11.62       2.97
O       7.81       5.07      12.68
O      12.83       5.04       0.35
O      12.10      11.67       3.23
O       6.10       0.99       3.44
O       3.93       6.61       2.68
O      15.26       8.33       3.97
O       7.81       3.66       8.15
O       7.49       2.13       6.60
O      12.10       8.28       3.71
O      11.44       6.17       3.51
O      12.10      13.78       9.62
O       6.11       2.72      10.92
O      13.56       9.27       1.20
O       8.53       9.30      13.54
O       9.26       2.67      10.65
O      15.27      13.34      10.45
O      17.44       7.72      11.21
O       6.11       6.01       9.91
O      13.56      10.67       5.74
O      13.88      12.21       7.29
O       9.26       6.06      10.18
O       9.93       8.16      10.38
