28

O       5.98       3.36      18.27
O       8.03       4.21      16.14
O       4.36       2.34      19.38
O      10.28       4.01      16.23
Mg       0.39       3.99      19.42
Mg      11.68       4.08      17.62
Mg       7.64       4.42      18.06
Mg       4.42       4.34      19.86
C      14.23       2.94      16.86
C       1.92       4.56      21.83
C      12.57       6.13      18.93
C       9.17       3.85      15.64
C       5.32       2.28      18.55
O       7.13       5.81      19.38
O       5.94       4.89      21.06
O       1.93       4.69      18.40
C       6.98       5.48      20.61
O       3.79       5.88      18.73
C       2.59       5.78      18.34
O       9.18       3.72      19.07
O      11.05       2.53      18.75
O      -0.13       2.60      18.10
O      13.19       3.52      16.42
C       9.84       2.63      19.14
O      13.23       5.05      19.21
O       0.78       4.20      21.34
O      11.61       6.07      18.10
O       3.03       4.40      21.25
