12

H      10.30      -3.00       8.47
C      10.32      -3.23       5.34
C      10.39      -4.09       6.52
C      10.36      -3.92       7.91
C      10.47      -5.22       8.41
O      10.32      -3.83       4.18
O      10.24      -1.96       5.38
C      10.61      -5.86       9.76
O      10.66      -7.17       9.72
O      10.72      -5.15      10.76
N      10.50      -5.42       6.22
N      10.55      -6.09       7.36
