12

C       5.54      11.28       5.35
C       5.46      12.14       6.52
C       5.46      11.97       7.91
C       5.35      13.28       8.40
O       5.53      11.86       4.19
O       5.64      10.00       5.40
H       5.51      11.05       8.48
C       5.19      13.92       9.75
O       5.14      15.23       9.71
O       5.07      13.21      10.76
N       5.35      13.47       6.21
N       5.29      14.15       7.36
