12

O       7.79       1.74      12.07
O       5.92       1.81      13.26
H       6.96       1.76      16.36
O       9.11       1.35      18.64
O      11.14       1.43      17.60
N       9.38       1.58      14.10
N      10.06       1.54      15.24
C       7.19       1.73      13.22
C       8.05       1.68      14.40
C       7.88       1.70      15.79
C       9.19       1.61      16.29
C       9.83       1.47      17.64
