100

Cu      10.40       0.16       8.88
Cu      10.47       0.24       0.49
Cu      -1.81       9.53       9.87
Cu      -1.88       9.44      18.25
H       7.56       1.33      11.89
H       2.15       2.81       9.88
H       4.09       3.94      10.97
H       4.88       0.37      13.25
H       5.48       3.97      13.09
H       6.61       3.04      12.13
H       2.95      -0.76      12.13
H       7.38       1.12      16.23
H       5.26       6.32      18.24
H       4.37       4.25      17.15
H       8.00       3.90      14.87
H       4.51       2.87      15.03
H       5.56       1.86      15.99
H       8.89       5.95      15.99
H       1.02       8.36       6.85
H       6.44       6.87       8.87
H       4.50       5.74       7.78
H       3.71       9.31       5.50
H       3.10       5.72       5.65
H       1.97       6.64       6.62
H       5.64      10.44       6.62
H       1.21       8.56       2.52
H       3.33       3.37       0.50
H       4.22       5.43       1.59
H       0.59       5.78       3.87
H       4.08       6.82       3.72
H       3.03       7.83       2.76
H      -0.31       3.73       2.76
H      10.24      -1.23      14.06
H      -1.65      10.92       4.69
C       7.90       0.96      12.86
C       8.95       0.03      12.86
C       1.27       0.27      10.32
C       4.62       2.23      12.18
C       2.44       0.96      10.94
C       2.76       2.28      10.61
C       3.84       2.91      11.22
C       4.29       0.91      12.50
C       5.78       2.94      12.84
C       3.21       0.27      11.88
C       9.58      -0.35      11.56
C       7.79       0.83      15.27
C       8.83      -0.10      15.26
C       7.67       7.49      17.80
C       6.13       3.94      15.94
C       7.13       6.25      17.18
C       5.85       5.77      17.51
C       5.36       4.62      16.90
C       7.41       4.42      15.62
C       5.57       2.69      15.28
C       7.91       5.56      16.24
C       9.29      -0.68      16.56
C       0.69       8.72       5.89
C      -0.36       9.65       5.88
C       7.32       9.41       8.43
C       3.97       7.46       6.57
C       6.15       8.73       7.81
C       5.83       7.40       8.14
C       4.74       6.78       7.53
C       4.30       8.78       6.25
C       2.80       6.74       5.90
C       5.37       9.41       6.86
C      -0.99      10.03       7.18
C       0.80       8.86       3.48
C      -0.24       9.79       3.49
C       0.92       2.19       0.95
C       2.46       5.75       2.80
C       1.45       3.43       1.56
C       2.73       3.91       1.23
C       3.22       5.06       1.85
C       1.18       5.26       3.13
C       3.02       6.99       3.47
C       0.68       4.12       2.51
C      -0.70      10.36       2.19
C       7.30       1.38      14.06
C       9.43      -0.51      14.06
C       1.29       8.30       4.69
C      -0.84      10.20       4.69
N       6.26       2.30      14.06
N       2.33       7.38       4.69
O       9.48       0.49      10.60
O       0.47       0.99       9.62
O       1.15      -0.98      10.55
O       8.79       9.99      11.52
O       8.44      -0.69      17.52
O       6.87       8.20      18.50
O       8.90       7.77      17.57
O      -1.08      -1.13      16.60
O      -0.90       9.19       8.15
O       8.12       8.69       9.13
O       7.44      10.67       8.20
O      -0.20      -0.31       7.23
O       0.15      10.37       1.23
O       1.72       1.48       0.25
O      -0.32       1.92       1.18
O       9.67      10.82       2.15
