25

H       2.72       0.15      20.16
H       3.98       1.03      22.14
H       5.71      -2.91      22.59
H       4.38      -3.62      20.61
H       8.06       1.12      27.31
H       9.39       0.27      29.25
H       8.57      -3.67      28.26
H       7.22      -2.99      26.27
N       3.47      -1.78      20.33
N       5.71       0.89      24.09
N       6.47       0.89      25.25
N       9.05      -1.73      28.82
C       3.38      -0.50      20.74
C       4.08      -0.01      21.83
C       4.92      -0.88      22.54
C       5.04      -2.20      22.10
C       4.31      -2.61      20.99
C       5.62      -0.36      23.70
C       6.79      -0.36      25.50
C       7.55      -0.86      26.63
C       8.16       0.06      27.49
C       8.90      -0.42      28.57
C       8.45      -2.62      28.00
C       7.69      -2.23      26.90
O       6.29      -1.21      24.55
