32

H       4.44       7.79       0.38
H       5.26      11.52       2.35
H       3.28      11.52      -1.49
H       4.38      18.98      -0.39
H       5.22      15.26      -2.37
H       3.29      15.25       1.49
C       3.11       8.81      -1.76
C       5.69       8.82       2.48
C       4.37       8.88       0.39
C       3.75       9.57      -0.66
C       4.93       9.58       1.45
C       4.85      10.97       1.50
C       3.74      10.97      -0.67
C       4.27      11.67       0.43
C       3.08      17.96       1.75
C       5.64      17.96      -2.50
C       4.32      17.90      -0.40
C       3.72      17.20       0.65
C       4.88      17.20      -1.48
C       4.81      15.81      -1.52
C       3.73      15.80       0.66
C       4.25      15.11      -0.44
N       4.27      13.08       0.56
N       4.26      13.69      -0.56
O       2.90       9.34      -2.88
O       2.74       7.57      -1.57
O       6.28       9.44       3.43
O       5.82       7.55       2.35
O       2.88      17.44       2.88
O       2.71      19.21       1.55
O       6.22      17.35      -3.46
O       5.78      19.23      -2.36
