14

Cu       6.61      17.48      14.06
Cu       4.24      17.10      13.71
C       5.41      19.04      12.03
O       6.95      15.98      12.80
O       4.74      15.89      12.26
O       6.54      18.71      12.52
O       4.27      18.63      12.45
C       5.97      15.56      12.09
C       4.84      19.00      15.69
C       5.48      15.55      15.75
O       6.06      18.92      15.32
O       3.87      18.33      15.19
O       4.44      15.61      15.00
O       6.55      16.24      15.59
