14

Cu       0.19      10.29       8.32
Cu       0.30      12.69       8.68
O      -1.30      10.68       7.07
O      -0.96      12.93       7.19
O       1.80      12.66       7.39
O       1.41      10.49       6.79
C       2.03      11.15      10.29
C      -1.52      11.88       6.70
C       1.98      11.63       6.64
C      -1.49      11.32      10.36
O       1.72      10.13       9.59
O       1.56      12.34      10.13
O      -1.04      10.22       9.86
O      -1.22      12.50       9.93
