14

C       1.59       4.65      11.72
C       2.05       7.53      13.96
O      -1.69       4.38      13.38
H       0.93       8.03      15.73
H       2.71       8.40      13.98
N       2.22       6.63      12.98
N       0.25       6.24      14.90
C       0.41       5.38      13.87
O      -0.10       3.11      14.37
C      -0.55       4.21      13.81
O       2.56       4.99      10.92
C       1.06       7.31      14.91
C       1.40       5.57      12.90
O       0.81       3.69      11.59
