14

C      14.71       6.81       9.76
C      14.72       9.12       7.16
Cu      16.65       8.81       9.25
O      17.94       6.12       8.67
O      17.95       7.92       6.61
O      18.05       9.62       8.13
O      18.04       7.79      10.22
Cu      16.53       7.01       7.60
O      15.24       9.70       8.18
O      15.22       7.89      10.24
O      15.12       6.19       8.72
O      15.14       8.03       6.63
C      18.47       9.00       7.09
C      18.46       6.69       9.70
