14

O      11.09       1.80       8.66
O      11.09      -0.02       6.61
O      11.00      -1.73       8.13
O      10.98       0.12      10.21
Cu      12.39      -0.90       9.25
Cu      12.51       0.90       7.60
C      10.58      -1.10       7.09
C      10.57       1.22       9.69
O      13.81      -1.79       8.19
O      13.81       0.03      10.24
O      13.90       1.73       8.72
O      13.91      -0.12       6.64
C      14.33      -1.21       7.16
C      14.32       1.11       9.76
