74

H       2.91      -3.96      12.92
H       4.12      -3.43      14.13
H       2.38      -2.42      15.60
H       1.22      -3.19      14.48
H      -0.88      -2.32      15.10
H       2.42       0.41      14.52
H       4.36      -5.49      12.80
H       6.45      -6.91      11.77
H       8.03      -5.03      10.55
H       1.72      -2.73      11.43
H       1.27      -1.62       8.96
H       3.77      -0.94       8.06
H       6.99      -2.39      13.53
H       7.65       0.23      14.03
H       5.62       1.67      12.87
H      -2.91       3.96      17.00
H      -4.12       3.42      15.79
H      -2.38       2.42      14.32
H      -1.22       3.19      15.43
H       0.88       2.32      14.82
H      -2.42      -0.41      15.40
H      -4.35       5.48      17.11
H      -6.45       6.91      18.15
H      -8.03       5.03      19.37
H      -1.72       2.73      18.49
H      -1.27       1.62      20.95
H      -3.77       0.94      21.86
H      -6.98       2.38      16.38
H      -7.65      -0.24      15.88
H      -5.61      -1.67      17.05
C       4.50      -2.68      12.15
C       3.51      -3.11      13.26
C       1.79      -2.26      14.67
C       0.87      -1.09      14.79
C      -0.49      -1.30      15.03
C       1.37       0.23      14.71
C       5.22      -5.14      12.25
C       6.29      -5.84      11.72
C       7.11      -4.88      11.10
C       2.42      -2.34      10.70
C       2.22      -1.76       9.46
C       3.49      -1.40       9.00
C       6.46      -1.47      13.30
C       6.78      -0.14      13.52
C       5.74       0.60      12.93
C      -4.50       2.68      17.77
C      -3.51       3.10      16.66
C      -1.79       2.26      15.25
C      -0.87       1.09      15.12
C       0.49       1.30      14.88
C      -1.36      -0.23      15.21
C      -5.22       5.14      17.67
C      -6.29       5.84      18.20
C      -7.11       4.88      18.82
C      -2.42       2.34      19.22
C      -2.22       1.76      20.46
C      -3.49       1.39      20.92
C      -6.46       1.47      16.61
C      -6.78       0.14      16.39
C      -5.74      -0.60      16.99
N       6.61      -3.62      11.22
N       5.44      -3.79      11.98
N       4.45      -1.71       9.89
N       3.79      -2.31      10.94
N       4.81      -0.21      12.37
N       5.28      -1.49      12.59
N      -6.61       3.62      18.70
N      -5.44       3.78      17.94
N      -4.45       1.71      20.02
N      -3.79       2.31      18.97
N      -4.81       0.21      17.55
N      -5.28       1.49      17.32
O       2.70      -2.01      13.58
O      -2.70       2.00      16.34
