36

H      21.68       2.14      22.83
H      17.87       5.25      22.24
H      18.66       3.90      20.33
H      20.56       2.33      20.62
O      19.76       9.44      26.94
H      15.48       9.38      29.73
C      18.66       8.39      30.47
H      15.93       7.99      27.73
C      19.09       8.79      26.01
C      20.22       2.93      21.46
H      19.75       7.07      24.07
C      18.70       4.57      22.38
H      19.87       7.11      29.24
C      17.93       7.45      28.35
C      17.79       3.21      25.78
H      17.23       9.66      31.47
C      18.94       7.33      26.05
C      18.24       6.71      27.11
O      16.98       2.71      24.87
C      17.81       5.38      26.98
C      18.08       4.65      25.81
C      18.84       5.25      24.78
C      19.32       4.45      23.63
C      19.23       6.59      24.89
C      20.40       3.58      23.78
O      18.55       2.40      26.50
C      19.15       3.81      21.30
C      20.85       2.82      22.70
H      17.29       4.90      27.80
C      18.91       7.59      29.34
H      19.41       8.51      31.23
C      17.42       9.04      30.60
C      16.44       8.88      29.62
C      16.69       8.09      28.49
O      18.43       9.46      25.10
H      20.90       3.50      24.74
