36

C      28.58       4.40      24.81
C      27.97       5.64      25.05
C      28.69       6.63      25.74
C      30.08       6.52      25.89
C      30.70       5.30      25.55
C      29.97       4.30      24.89
C      32.04       4.96      26.08
C      33.13       4.84      25.20
C      34.34       4.32      25.66
C      34.46       3.88      26.98
C      33.37       3.98      27.86
C      32.16       4.52      27.40
C      26.76       6.03      24.28
C      26.83       7.08      23.35
C      25.73       7.38      22.54
C      24.56       6.63      22.65
C      24.46       5.63      23.61
C      25.56       5.33      24.43
O      27.92       2.18      24.12
H      28.19       7.56      26.01
H      30.46       3.38      24.60
H      25.80       8.18      21.81
H      23.74       6.81      21.96
H      23.54       5.06      23.71
O      27.25       2.95      26.17
H      27.75       7.64      23.22
H      25.48       4.53      25.14
H      33.04       5.15      24.17
H      31.31       4.55      28.07
O      31.34       8.18      24.75
H      35.18       4.22      24.99
H      35.39       3.44      27.33
H      33.46       3.63      28.87
O      30.84       8.55      26.97
C      27.80       3.16      25.00
C      30.87       7.75      25.90
