36

H       9.24      22.47      20.33
H       8.21      26.79      18.11
H       9.85      19.56      16.42
H       7.54      19.06      15.63
H       5.64      20.41      16.44
H       6.05      22.41      17.85
H      10.28      21.58      17.76
H      11.51      26.76      20.38
H      12.14      29.04      21.12
H       7.35      27.85      20.64
H       8.00      30.15      21.21
H      10.39      30.74      21.51
O      10.31      25.27      22.60
O       8.38      24.06      22.63
O       7.38      24.14      15.68
O       9.39      25.19      15.90
C       9.40      24.56      21.97
C       8.23      24.65      17.90
C       8.47      23.42      18.55
C       9.05      23.42      19.83
C       9.29      24.62      20.51
C       9.00      25.84      19.87
C       8.40      25.84      18.61
C       9.38      27.13      20.48
C       8.30      24.71      16.44
C      10.74      27.48      20.61
C      10.11      29.73      21.24
C       8.76      29.40      21.10
C       8.39      28.09      20.75
C       8.20      22.14      17.87
C       9.27      21.32      17.49
C       9.02      20.18      16.72
C       7.72      19.89      16.30
C       6.65      20.67      16.73
C       6.89      21.79      17.53
C      11.10      28.77      21.02
