16

O       7.08       8.40       3.67
O       6.33       6.33       3.28
C       6.49       7.34       4.06
C       6.00       7.23       5.47
C       5.47       6.02       5.94
C       6.12       8.33       6.34
H       5.81       9.06       8.35
H       4.65       4.99       7.66
C       4.70       6.90       9.55
C       5.19       7.01       8.14
C       5.72       8.22       7.67
C       5.07       5.91       7.27
O       4.11       5.84       9.94
O       4.86       7.91      10.33
H       5.38       5.18       5.26
H       6.55       9.25       5.96
