142

Zn       1.53      -0.08       9.07
Zn       2.56       8.43       4.27
Zn      -1.87       0.85       9.58
Zn       4.90       6.17       4.78
Zn       3.87      -2.34       9.58
Zn       8.30       5.24       4.27
H       0.44      -2.59       5.22
H       7.45       8.93       4.07
H       2.07       1.87      13.15
H       5.22       8.74       1.99
H      -1.55       5.10       8.87
H      -0.54       7.10       7.26
H       9.38       3.03       5.77
H      -0.21       1.83       6.14
H      -0.64       5.63       3.04
H       1.59       4.53       3.30
H       2.17       1.70       5.77
H       2.93       3.21       5.27
H       2.76       2.51       2.85
H       3.83       1.53       3.83
H       1.04       0.44       3.76
H       1.76       0.55       2.16
H       0.68      12.21       1.45
H       2.28      -0.94       5.59
H       3.67      -2.98       5.92
H       1.99      10.14       1.94
H       5.99       8.68       8.63
H      -1.02      -2.84       9.78
H       4.35       4.22       0.69
H       1.21      -2.65      11.86
H       7.98       0.99       4.98
H       6.96      -1.01       6.58
H      -2.95       3.05       8.08
H       6.64       4.25       7.71
H       7.06       0.45      10.80
H       4.84       1.56      10.55
H       4.26       4.39       8.08
H       3.50       2.88       8.58
H       3.67       3.58      11.00
H       2.60       4.56      10.01
H       5.39       5.65      10.09
H       4.67       5.54      11.69
H       5.75      -6.13      12.40
H       4.14       7.03       8.26
H       2.76       9.07       7.93
H       4.44      -4.05      11.91
C      -0.84      -0.79       7.27
C      -1.30      -1.81       6.31
C      -0.63      -2.61       5.40
C       7.30       9.71       4.81
C       6.09      10.02       5.40
C       4.74       9.46       5.31
C       3.33      -0.37      11.60
C       3.41       0.15      12.98
C       2.75       1.17      13.63
C       5.57       8.14       1.15
C       6.43       7.06       1.25
C       7.12       6.47       2.41
C       0.27       2.75       8.91
C       0.33       4.10       8.34
C      -0.60       5.12       8.34
C      -0.09       6.14       7.51
C       1.13       5.70       7.06
C       2.10       6.35       6.17
C      -1.47       3.34       5.25
C      -0.26       2.66       5.43
C       0.88       3.08       4.74
C      -0.50       4.79       3.72
C       0.73       4.16       3.86
C       2.22       2.43       4.95
C       2.77       1.78       3.67
C       2.00       0.49       3.23
C       2.79      -0.76       3.48
C       0.69      11.80       2.46
C       2.84      -1.36       4.75
C       3.62      -2.49       4.95
C       1.43      10.65       2.72
C       7.27       6.88       6.58
C       7.72       7.89       7.54
C       7.05       8.69       8.45
C      -0.87      -3.62       9.04
C       0.33      -3.93       8.45
C       1.69      -3.38       8.54
C       3.10       6.45       2.25
C       3.01       5.94       0.87
C       3.67       4.92       0.22
C       0.86      -2.05      12.70
C      -0.01      -0.98      12.59
C      -0.69      -0.38      11.44
C       6.16       3.34       4.94
C       6.09       1.99       5.51
C       7.03       0.97       5.51
C       6.52      -0.05       6.34
C       5.29       0.39       6.78
C       4.33      -0.27       7.68
C       7.89       2.75       8.60
C       6.69       3.42       8.41
C       5.55       3.01       9.11
C       6.93       1.30      10.13
C       5.70       1.93       9.99
C       4.21       3.66       8.90
C       3.65       4.31      10.18
C       4.43       5.59      10.62
C       3.64       6.85      10.37
C       5.74      -5.71      11.39
C       3.58       7.44       9.10
C       2.81       8.58       8.90
C       5.00      -4.56      11.13
N      -1.59       4.39       4.41
N       1.48      10.09       3.95
N       8.02       1.70       9.44
N       4.95      -4.01       9.90
O       0.42      -0.70       7.44
O      -1.77      -0.10       7.82
O       9.11      -2.12       6.31
O       4.56       8.55       4.37
O       3.83       9.87       6.05
O       4.00      -1.42      11.34
O       2.58       0.29      10.80
O       6.65       6.50       0.02
O       6.64       6.67       3.58
O       8.18       5.79       2.25
O      -0.82       2.52       9.56
O       1.22       1.94       8.70
O       1.42       4.45       7.57
O       3.27       5.89       6.06
O       1.61       7.39       5.59
O       6.01       6.79       6.41
O       8.20       6.18       6.03
O      -2.69       8.20       7.54
O       1.87      -2.47       9.48
O       2.60      -3.78       7.80
O       2.43       7.51       2.51
O       3.84       5.80       3.05
O      -0.22      -0.42      13.83
O      -0.21      -0.58      10.26
O      -1.76       0.30      11.60
O       7.25       3.57       4.29
O       5.21       4.14       5.15
O       5.01       1.63       6.28
O       3.16       0.20       7.79
O       4.82      -1.31       8.26
