51

U       8.36       7.94       8.94
U       5.58       2.51       1.98
U       5.74       0.92       5.68
H       9.97       2.95      10.49
H       3.41       8.43       4.36
H       4.95       6.51       3.26
H       8.81       0.57       1.46
H       6.02       6.96       1.95
H       4.01       7.45       0.50
H       3.12       3.89       8.12
H       9.69       1.39       3.63
H      10.32       6.89       1.24
H       4.42       8.96       7.39
H       5.16       9.83       9.57
H       9.05       3.80       7.68
H      10.66       1.94       6.69
H       7.99       3.34       9.00
H       3.65       3.50       9.76
H      11.28       9.68       9.02
H       2.78       0.65       1.93
H      10.94       6.46       2.86
C       5.04       7.19       2.40
C       3.52       8.96       3.39
C       5.89       9.10       3.87
C       2.53       7.09       1.98
C       4.11       5.40       0.95
C       3.93       6.83       1.40
C      10.06       3.57       9.58
C       4.92       8.66       2.82
C       4.48       1.49       8.15
C       9.14       1.71       8.17
C       8.99       3.17       8.58
C      11.47       3.28       9.01
C       9.83       5.02       9.96
C      10.54       1.39       7.63
C       3.03       1.79       8.65
C       8.14       1.33       7.14
C       9.61       8.81       2.76
C      11.03       8.59       2.36
O       4.85       2.30       7.11
O       7.18       6.89      10.69
O       7.90       2.04       6.10
O       9.23       8.40       3.92
O       6.70       3.57       0.25
O       7.72       9.99       9.20
O       6.39       0.40       1.80
O       4.20       1.57       3.72
O       4.27       4.50       1.86
O       9.86       8.84       7.29
O       9.69       5.87       9.04
O       6.05       8.42       4.94
