28

Ca       3.73       3.88       7.02
Ca       3.42      -3.24       3.22
Cd       2.04      -0.72       5.35
Cd       5.11       6.40       4.89
C       3.62       6.51       7.85
C       3.21      -2.92       6.70
C       6.95       4.58       6.65
C       0.20      -2.55       3.59
C       1.37       1.87       6.55
C       3.94       4.20       3.54
C       3.53      -0.62       2.39
C       5.78       9.00       3.69
O       3.68      -1.53       1.54
O       3.19      -3.24       5.46
O       3.55      -0.90       3.67
O       0.20      -1.79       4.61
O       1.22      -2.99       2.98
O       3.47       5.59       8.70
O       6.95       5.34       5.63
O       5.93       4.13       7.26
O       4.26       5.37       3.11
O       0.83       1.06       5.73
O       3.96       3.89       4.78
O       6.32       8.18       4.51
O       2.89      -1.76       7.13
O       2.60       1.86       6.87
O       4.55       8.99       3.38
O       3.60       6.22       6.57
