12

H      -2.18      -0.98       6.19
H       1.92      -1.40       5.58
C      -1.12      -1.95       7.78
C      -1.20      -1.32       6.53
C       1.05      -1.56       6.21
C       1.17      -2.20       7.43
N      -0.16      -1.09       5.73
C      -2.26      -2.18       8.64
N       0.12      -2.39       8.26
H       2.14      -2.54       7.79
O      -3.45      -1.92       8.21
O      -2.03      -2.65       9.82
