12

N       4.98       5.82       0.25
N       5.26       8.59      -0.44
O       1.69       8.43       0.00
H       2.96       6.25       0.46
H       7.07       5.75      -0.09
H       7.28       8.17      -0.69
C       4.03       8.02      -0.12
C       3.94       6.66       0.21
C       6.19       6.40      -0.11
C       6.32       7.73      -0.44
C       2.88       8.91      -0.15
O       3.12      10.16      -0.34
