13

H       4.71      10.74       4.25
H       5.35       9.54       6.39
H       8.69      12.19       6.74
H       7.85      13.40       4.72
C       5.52      11.07       4.89
C       5.96      10.34       6.00
N       6.23      12.14       4.45
C       7.13      10.69       6.65
C       7.34      12.52       5.09
C       7.85      11.80       6.18
C       7.60       9.96       7.86
O       6.83       8.99       8.25
O       8.67      10.30       8.41
