13

H       2.69       4.30       2.66
H       1.76       5.84       0.92
H       5.05       4.78      -1.61
H       5.77       3.11       0.16
N       4.29       3.69       1.50
C       3.17       4.39       1.68
C       2.60       5.19       0.68
C       3.29       5.33      -0.53
C       4.48       4.63      -0.70
C       4.96       3.81       0.32
C       2.86       6.25      -1.64
O       1.77       6.90      -1.44
O       3.61       6.32      -2.65
