13

C       2.88       5.61       7.72
C       3.32       4.88       6.61
C       4.49       5.23       5.96
C       5.21       6.34       6.43
C       4.70       7.05       7.52
C       4.96       4.49       4.75
N       3.59       6.67       8.16
O       4.19       3.52       4.36
O       6.03       4.83       4.20
H       2.07       5.28       8.36
H       2.71       4.07       6.22
H       6.06       6.73       5.87
H       5.21       7.94       7.89
