21

Ni       6.61      -0.31      11.76
C       8.71       1.79      10.85
N       6.68      -1.81      10.32
N       5.08       0.73      10.84
N       6.54       1.18      13.21
N       8.14      -1.36      12.69
O       5.11      -1.30      12.89
H       5.90      -2.43      10.64
H       4.23       0.23      11.09
O       8.11       0.66      10.65
C       6.48      -1.32       8.94
C       5.22       0.76       9.35
C       7.96      -2.50      10.54
C       5.05       2.06      11.49
C       4.51      -2.42      12.68
C       6.74       0.69      14.60
C       8.00      -1.39      14.18
C       5.26       1.87      13.00
C       8.17      -2.69      12.04
H       7.32       1.80      12.90
H       9.00      -0.86      12.45
