28

N       2.13       2.16      13.37
N       3.83       0.89      12.74
C       4.61      -0.09      11.97
C       4.30       1.74      13.73
C       5.16       0.51      10.67
N       9.02      -2.18       7.20
N       7.32      -0.91       7.83
H       1.89       0.65      11.83
H       3.19       3.29      14.87
H       5.33       1.68      14.07
H       3.95      -0.94      11.75
H       5.42      -0.46      12.61
H       5.77       1.39      10.90
H       4.31       0.84      10.05
C       8.63      -1.19       8.02
C       7.91      -2.54       6.45
C       6.84      -1.76       6.84
C       6.54       0.07       8.60
C       5.99      -0.53       9.90
H       9.26      -0.67       8.74
H       7.96      -3.32       5.70
H       5.82      -1.71       6.50
H       7.20       0.92       8.81
H       5.73       0.43       7.95
H       5.38      -1.41       9.67
H       6.84      -0.86      10.52
C       2.52       1.17      12.54
C       3.24       2.52      14.11
