14

C      19.56      15.71      12.79
C      17.91      14.26       9.96
H      19.54      16.06      14.79
H      22.50      16.59      11.55
N      21.08      15.63      10.40
N      20.84      16.20      12.72
N      19.11      14.56       9.42
N      18.97      15.74      13.99
N      17.78      14.62      11.26
H      18.01      15.40      14.14
H      17.14      13.77       9.37
C      21.51      16.15      11.57
C      19.81      15.15      10.44
C      19.00      15.19      11.59
