14

N      13.63      14.13       1.75
N      13.39      14.69       4.07
N      16.70      15.71       3.21
N      15.36      15.76       5.06
N      15.51      14.58       0.48
H      14.93      14.27      -0.32
H      11.97      13.73       2.92
H      17.34      16.55       5.10
H      16.46      14.92       0.33
C      12.97      14.17       2.90
C      14.66      15.17       4.03
C      15.47      15.13       2.88
C      14.91      14.62       1.68
C      16.56      16.06       4.51
