14

N      21.07       9.99       7.27
N      20.75      12.35       7.59
N      24.09      11.69       8.63
H      19.34      11.02       6.84
N      23.08       8.89       7.71
H      22.59       8.00       7.48
H      24.08       8.88       7.95
N      22.71      13.50       8.52
H      24.71      13.64       9.26
C      20.35      11.11       7.23
C      22.02      12.40       8.06
C      22.87      11.28       8.13
C      22.38      10.02       7.71
C      23.94      13.01       8.85
