22

H      12.92       3.22       8.15
H      12.53       4.27      10.43
H      13.95       4.85       9.54
H      12.79       6.78      10.55
H      11.26       6.31       9.81
H      13.79       7.14       8.31
H      12.34       7.02       6.26
H      11.00       6.45       7.25
H      12.22       4.53       6.14
H      13.72       5.08       6.88
O      10.46       3.15       7.23
O      10.23       3.75       9.40
O      11.21       9.01       8.00
O      12.85       9.27       9.46
C      12.36       4.15       8.27
C      12.85       4.85       9.55
C      12.35       6.30       9.67
C      12.69       7.12       8.40
C      12.10       6.45       7.16
C      12.64       5.02       7.03
C      10.90       3.68       8.35
C      12.24       8.55       8.62
