13

N      13.39       2.03       3.79
N      13.72       1.23       6.02
N      15.85       4.07       5.73
N      15.36       2.52       7.29
N      14.58       3.84       2.86
H      14.31       3.49       1.94
H      15.36       4.52       2.90
H      12.44       0.35       4.65
C      13.15       1.17       4.81
C      14.61       2.24       6.18
C      14.91       3.19       5.19
C      14.32       3.06       3.91
C      16.06       3.64       6.96
