22

C      10.34       9.34      13.01
C      11.58       9.51      13.90
C       9.09       9.95      13.66
C      10.53       9.92      11.63
H      10.27      10.57      16.09
H       7.97       9.77      15.52
H       8.64       8.25      14.94
H      11.19       7.80      15.18
H      12.20       9.04      15.93
O       9.19       7.84      17.49
O      10.45       9.48      18.30
H      10.15       8.26      12.86
H      12.46       9.06      13.42
H      11.79      10.58      14.01
H       9.23      11.03      13.76
H       8.22       9.80      13.01
O      11.24      10.99      11.45
O       9.97       9.36      10.64
C      10.08       9.50      15.94
C       8.85       9.32      15.04
C      11.34       8.88      15.28
C       9.89       8.91      17.32
