22

C      15.73      12.23       6.20
C      15.24      11.54       4.92
C      15.74      10.09       4.80
C      15.40       9.27       6.07
C      15.99       9.94       7.31
C      15.45      11.37       7.44
C      17.19      12.71       6.12
C      15.85       7.84       5.85
H      15.17      13.17       6.32
H      15.56      12.11       4.04
H      14.14      11.54       4.94
H      15.30       9.60       3.92
H      16.83      10.08       4.66
H      14.30       9.25       6.16
H      15.75       9.36       8.21
O      17.63      13.24       7.24
H      15.87      11.86       8.33
H      14.37      11.31       7.59
O      17.86      12.63       5.08
H      17.09       9.94       7.22
O      16.88       7.37       6.47
O      15.23       7.11       5.01
