580

H       7.85       1.52      16.87
H       6.36       1.25      20.82
H       9.09       1.44      14.82
H       8.00      55.99      21.26
H       7.22      56.96      18.98
H       7.77       2.73      28.29
H       5.46       0.35      27.83
H       5.20       0.16      25.44
H       6.30       1.49      23.20
H       1.41      19.23      29.07
H       0.72      20.36      27.07
H       2.35      23.96      28.55
H       0.51      24.18      24.12
H       1.95      34.27      29.21
H       0.05      34.85      23.79
H       0.25      37.79      27.61
H       7.62      55.96      28.28
H       7.95      56.24      23.63
H       7.87       4.38      35.49
H       7.92       0.76      33.59
H       7.96       4.50      30.11
H       6.00       5.18      33.11
H       6.11       7.57      33.13
H       9.16       9.27      30.89
H       8.84      11.61      30.62
H       6.93      11.77      34.40
H       7.26       9.43      34.66
H       7.58      13.59      31.27
H       4.89      14.38      31.25
H       3.54      16.35      31.11
H       7.05      16.07      34.45
H       1.13      19.44      35.88
H       3.72      18.74      30.48
H       1.54      21.77      32.40
H       3.45      18.82      34.69
H       5.75      18.07      34.28
H       3.03      22.85      30.54
H       2.80      22.97      34.28
H       1.94      24.22      36.12
H       3.02      35.65      34.81
H       2.81      35.52      31.05
H       1.10      39.05      29.47
H       3.49      42.15      34.24
H       7.02      42.46      30.92
H       1.38      39.26      36.27
H       3.69      39.76      34.87
H       1.54      36.72      32.95
H       3.43      39.68      30.66
H       5.73      40.45      31.08
H       4.82      44.13      34.11
H       6.06      50.99      32.45
H       7.09      49.15      30.84
H       6.75      46.82      31.06
H       7.48      44.94      34.13
H       8.87      46.86      34.73
H       9.20      49.21      34.49
H       7.95      57.77      31.92
H       8.01      54.03      35.41
H       5.98      53.38      32.50
H       7.83      54.15      30.03
H       7.68       2.57      37.24
H       8.02       2.24      41.92
H       0.27      20.70      37.75
H       0.09      23.65      41.57
H       2.33      34.53      36.80
H       0.50      34.31      41.23
H       0.69      38.13      38.27
H       6.31      57.01      42.30
H       5.24      58.36      40.08
H       5.49      58.18      37.69
H       7.83      55.80      37.23
H       7.24       1.47      46.55
H       8.06       2.46      44.29
H       7.85      56.89      48.63
H       6.35      57.22      44.68
H       9.09      56.96      50.69
H      17.02       6.29       5.57
H      16.92       6.19       1.79
H      16.06       4.92      58.52
H      17.28      12.84       5.00
H      15.37       9.90       7.02
H      17.61      10.46       5.63
H      15.60       7.34       3.68
H      17.41      10.38       1.42
H      15.10       9.67       0.23
H      18.56      14.85       4.94
H      18.52      43.53       1.95
H      17.26      45.55       1.91
H      17.60      47.93       1.29
H      15.59      51.04       3.25
H      17.40      47.99       5.50
H      15.09      48.69       6.70
H      16.98      52.10       1.37
H      16.90      52.18       5.14
H      16.05      53.44       6.98
H      11.87       1.54       9.77
H      14.52       4.96      11.98
H      13.68       3.11      13.26
H      12.73       3.37       8.51
H      11.37       1.92      13.96
H      16.32       5.17       7.56
H      14.68       8.77       9.02
H      18.49      29.29      10.85
H      18.57      29.31       8.45
H      14.25      49.97       8.55
H      11.75      56.38       9.89
H      13.40      54.93      13.50
H      14.09      52.93      12.37
H      12.45      54.39       8.77
H      11.17      56.32      14.05
H      13.18      58.27      10.93
H      10.22      57.03      18.45
H      11.50      56.96      16.43
H       9.60      58.26      27.45
H       9.35      58.06      25.08
H      10.18       4.99      32.51
H      10.29       7.39      32.52
H      10.27      51.11      32.85
H      10.19      53.51      32.90
H       9.39       0.44      40.44
H       9.64       0.25      38.07
H      10.24       1.38      47.08
H      11.52       1.43      49.10
H      11.77       1.97      55.65
H      13.41       3.44      52.04
H      14.10       5.44      53.18
H      12.47       3.96      56.78
H      11.18       2.06      51.48
H      13.18       0.09      54.60
H      14.26       8.39      56.99
H      18.56      28.95      54.54
H      18.64      28.92      56.94
H      15.38      48.47      58.51
H      14.69      49.60      56.51
H      11.84      56.82      55.74
H      14.53      53.41      53.55
H      13.69      55.27      52.27
H      12.69      54.99      57.01
H      11.37      56.46      51.55
H      16.28      53.21      58.00
H      20.94      13.29       1.83
H      19.69      11.24       1.91
H      19.42      21.48       3.90
H      23.57      21.86       3.19
H      22.47      19.61       1.85
H      22.41      17.22       2.11
H      20.79      17.68       5.99
H      20.84      20.05       5.73
H      21.55      15.40       5.02
H      20.82      28.33       4.19
H      21.15      24.68       6.00
H      21.01      24.70       0.61
H      19.17      23.85       3.69
H      23.32      24.24       3.00
H      23.28      34.11       3.79
H      19.13      34.47       3.08
H      21.10      33.66       0.78
H      20.86      30.00       2.58
H      20.93      33.63       6.16
H      23.52      36.49       3.62
H      20.72      40.69       0.87
H      20.78      38.32       1.10
H      22.35      41.10       4.75
H      22.42      38.71       4.98
H      19.37      36.85       2.90
H      21.49      42.96       1.86
H      20.90      45.05       5.08
H      19.67      47.11       5.01
H      22.78      28.90       8.58
H      22.70      28.86      10.97
H      20.93      26.44       7.81
H      21.66      27.28      12.83
H      20.75      31.81       7.93
H      19.57      30.95      12.72
H      21.81      27.45      19.50
H      23.12      27.63      21.50
H      22.01      27.55      15.16
H      23.95      30.66      17.80
H      25.30      30.81      19.76
H      19.91      31.22      15.07
H      21.30      30.64      16.99
H      26.92      25.79      27.63
H      26.06      27.63      26.38
H      27.76      26.04      22.85
H      25.42      27.22      22.23
H      26.51      33.36      27.38
H      25.82      31.38      26.26
H      27.46      32.85      22.65
H      25.14      31.43      22.15
H      27.33      29.52      25.18
H      26.52      25.12      37.98
H      25.83      27.11      39.10
H      27.49      25.65      42.70
H      25.18      27.05      43.22
H      27.32      28.98      40.17
H      26.89      32.70      37.72
H      26.03      30.86      38.98
H      27.76      32.45      42.49
H      25.43      31.26      43.14
H      23.14      30.83      43.90
H      24.04      27.80      47.58
H      25.38      27.67      45.61
H      20.06      27.10      50.31
H      21.33      27.77      48.35
H      21.83      30.98      45.91
H      21.95      30.89      50.22
H      20.84      26.52      57.46
H      19.72      27.34      52.65
H      20.92      31.90      57.58
H      22.82      29.53      56.80
H      22.74      29.57      54.41
H      21.61      31.11      52.55
C       8.60       0.84      16.77
C       6.64       0.46      21.40
C       8.89      58.56      17.82
C       7.59      56.84      21.66
C       7.16      57.89      20.82
C       7.43      57.81      19.47
C       6.14       0.08      25.85
C       6.28       0.19      27.25
C       6.61       0.60      22.80
C       7.55       0.03      27.85
C       1.64      20.22      28.96
C       1.24      20.88      27.78
C       1.46      22.27      27.63
C       2.17      22.96      28.64
C       1.05      35.92      28.23
C       1.80      35.29      29.24
C       0.83      37.32      28.31
C       8.68      58.40      27.03
C       8.53      58.27      25.64
C       7.25      58.40      25.04
C       7.11      58.19      23.64
C       7.57      57.00      23.05
C       7.69       0.03      29.26
C       7.81       2.53      29.29
C       7.74       2.39      36.24
C       7.86       3.38      35.28
C       7.92       2.77      34.03
C       7.77       1.15      35.60
C       7.78       1.28      29.91
C       7.94       2.84      31.51
C       7.92       3.49      30.28
C       8.00       3.45      32.79
C       8.08       4.87      32.82
C       9.32       5.53      32.65
C       6.98       7.04      33.02
C       6.91       5.64      33.00
C       8.21       7.71      32.85
C       8.25       9.13      32.81
C       7.64       9.89      33.82
C       7.45      11.27      33.67
C       7.86      11.94      32.49
C       8.55      11.18      31.50
C       8.75       9.80      31.66
C       7.45      13.24      32.19
C       2.28      20.93      30.00
C       4.52      17.42      32.67
C       2.05      21.08      34.90
C       5.55      17.31      33.63
C       6.34      16.14      33.72
C       6.13      15.07      32.83
C       5.10      15.17      31.86
C       4.31      16.33      31.79
C       1.34      20.44      35.95
C       2.44      20.39      33.72
C       2.12      20.92      32.45
C       2.56      20.32      31.26
C       3.34      19.15      31.35
C       3.69      18.58      32.60
C       3.21      19.21      33.78
C       2.56      22.30      29.81
C       2.29      22.47      35.01
C       1.80      23.21      36.10
C       2.55      36.19      35.54
C       2.30      36.02      30.33
C       1.33      38.05      29.40
C       2.26      37.56      35.34
C       4.48      41.09      32.68
C       2.04      37.41      30.44
C       5.52      41.21      31.73
C       6.30      42.38      31.64
C       6.07      43.45      32.54
C       5.04      43.34      33.49
C       4.26      42.18      33.57
C       1.62      38.27      36.39
C       2.44      38.10      31.63
C       2.11      37.56      32.89
C       2.55      38.17      34.09
C       3.32      39.35      34.00
C       3.66      39.92      32.75
C       3.20      39.29      31.57
C       8.17      50.82      32.62
C       8.19      49.40      32.64
C       8.74      48.70      33.73
C       8.54      47.32      33.87
C       7.79      46.59      32.91
C       7.32      47.29      31.77
C       7.51      48.67      31.64
C       7.38      45.29      33.20
C       7.72      58.51      36.25
C       7.81      57.25      35.60
C       7.97      55.70      34.00
C       7.97      55.04      35.24
C       7.86      56.00      36.23
C       8.02      55.08      32.73
C       7.92      55.77      31.49
C       7.75      57.38      29.92
C       7.71      56.14      29.28
C       7.84      55.15      30.23
C       8.08      53.66      32.69
C       6.89      52.91      32.56
C       6.94      51.51      32.52
C       9.31      52.99      32.80
C       8.71       0.13      38.48
C       8.56       0.24      39.88
C       7.29       0.11      40.48
C       7.15       0.29      41.88
C       7.63       1.48      42.49
C       7.64       1.62      43.88
C       0.84      21.17      37.04
C       1.05      22.57      37.12
C       2.15      35.53      36.71
C       1.43      36.22      37.72
C       1.21      37.61      37.56
C       7.59      58.50      37.67
C       6.32      58.34      38.27
C       6.17      58.44      39.67
C       6.63      57.89      42.70
C       7.18       0.56      44.71
C       7.44       0.63      46.06
C       8.61      57.57      48.74
C       8.91      58.47      47.70
C       6.66      58.01      44.11
C      16.54       6.83       6.29
C      16.38       6.68       1.07
C      15.89       5.93      58.55
C      16.25       8.21       6.09
C      18.36      11.83       3.47
C      16.09       8.06       1.19
C      15.61       8.92       7.14
C      16.46       8.75       2.38
C      16.15       8.20       3.64
C      16.55       8.82       4.84
C      17.27      10.03       4.76
C      17.60      10.62       3.52
C      17.18       9.97       2.33
C      18.07      12.90       4.34
C      15.35       8.68       0.16
C      16.24      50.18       0.84
C      16.08      50.31       5.74
C      15.35      49.68       6.77
C      16.46      49.62       4.55
C      16.14      50.17       3.29
C      16.54      49.56       2.09
C      17.26      48.35       2.16
C      17.59      47.76       3.40
C      17.17      48.40       4.59
C      18.04      45.48       2.56
C      18.35      46.54       3.45
C      16.51      51.55       0.64
C      16.37      51.69       5.87
C      15.88      52.43       6.95
C      12.69       2.15      11.64
C      12.41       2.27      10.26
C      12.90       3.35       9.52
C      13.68       4.35      10.13
C      13.93       4.27      11.52
C      13.43       3.18      12.27
C      12.32       0.96      12.34
C      11.60       1.01      13.56
C      16.14       6.18       7.46
C      15.42       6.87       8.47
C      15.20       8.25       8.31
C      14.85      50.43       7.86
C      11.17      58.44      14.21
C      12.52      55.86      11.80
C      13.16      54.81      12.51
C      13.57      53.64      11.85
C      13.35      53.48      10.47
C      12.63      54.48       9.77
C      12.23      55.66      10.43
C      12.63      58.31      11.79
C      12.23      57.11      12.41
C      11.50      57.19      13.62
C      15.09      51.82       7.94
C       9.35       0.80      15.58
C       9.96      57.65      17.68
C      10.41      58.49      15.42
C      10.71      57.62      16.49
C       9.38       6.94      32.66
C       9.36      51.58      32.77
C       9.99       0.75      47.85
C      10.73       0.78      49.04
C       9.35      57.60      49.93
C      10.43      58.51      50.11
C      12.53       2.51      53.74
C      13.17       3.56      53.03
C      13.58       4.73      53.70
C      13.36       4.88      55.08
C      12.65       3.87      55.77
C      12.25       2.70      55.11
C      12.24       1.26      53.12
C      11.51       1.19      51.91
C      15.11       6.54      57.61
C      12.63       0.05      53.74
C      14.86       7.93      57.69
C      15.61      49.46      58.40
C      15.20      50.12      57.22
C      15.41      51.51      57.07
C      12.68      56.22      53.88
C      12.38      56.09      55.26
C      12.87      55.01      56.00
C      13.66      54.02      55.39
C      13.92      54.10      54.01
C      13.43      55.19      53.26
C      12.32      57.41      53.18
C      11.18      58.56      51.32
C      11.60      57.37      51.96
C      16.11      52.21      58.09
C      19.43      11.99       2.55
C      20.18      13.19       2.51
C      19.89      14.23       3.41
C      18.81      14.09       4.31
C      21.52      21.45       3.56
C      21.67      20.05       3.77
C      21.22      19.47       4.97
C      21.20      18.07       5.13
C      21.62      17.23       4.08
C      22.13      17.81       2.90
C      22.16      19.21       2.75
C      21.34      15.88       4.17
C      20.84      27.89       6.19
C      21.01      26.33       4.58
C      21.05      25.69       5.82
C      20.92      26.64       6.80
C      21.08      25.67       3.32
C      21.00      26.32       2.06
C      20.85      27.92       0.50
C      20.98      25.70       0.81
C      21.22      24.26       3.31
C      20.10      23.44       3.56
C      20.25      22.05       3.69
C      22.64      22.27       3.27
C      22.49      23.66       3.16
C      20.74      29.13       6.88
C      21.03      32.65       0.96
C      20.87      30.44       0.58
C      21.00      32.01       2.20
C      21.05      32.66       3.46
C      20.96      32.01       4.71
C      20.79      30.41       6.27
C      20.79      31.64       6.92
C      20.91      32.63       5.96
C      21.18      34.08       3.46
C      22.45      34.68       3.63
C      20.05      34.89       3.22
C      20.20      36.28       3.10
C      22.59      36.08       3.53
C      20.92      31.70      58.53
C      21.47      36.89       3.24
C      21.61      38.29       3.06
C      22.11      39.12       4.09
C      22.07      40.52       3.96
C      21.56      41.12       2.78
C      21.13      40.29       1.72
C      21.15      38.89       1.86
C      21.29      42.47       2.71
C      19.41      46.36       4.36
C      20.15      45.16       4.40
C      19.85      44.13       3.49
C      18.78      44.29       2.58
C      21.87      28.97       9.05
C      21.82      28.93      10.45
C      21.25      28.09      13.30
C      20.68      29.10       8.30
C      20.58      29.05      11.14
C      19.40      29.20      10.38
C      20.57      29.08      12.56
C      19.45      29.21       8.97
C      20.03      30.19      13.24
C      24.34      29.24      20.84
C      23.31      28.28      20.73
C      22.52      28.18      19.57
C      22.72      29.08      18.50
C      21.44      28.25      14.68
C      23.75      30.04      18.59
C      24.54      30.13      19.75
C      20.24      30.36      14.62
C      20.99      29.41      15.36
C      21.41      29.71      16.65
C      27.07      25.82      26.62
C      26.83      27.02      24.50
C      26.58      26.90      25.88
C      27.82      24.81      25.98
C      28.04      24.89      24.59
C      27.54      25.98      23.85
C      26.43      28.20      23.81
C      25.66      28.14      22.62
C      25.17      29.32      22.00
C      26.75      29.47      24.34
C      26.58      31.92      24.35
C      27.22      32.96      23.64
C      27.63      34.14      24.30
C      27.40      34.29      25.69
C      26.69      33.28      26.38
C      26.29      32.11      25.72
C      26.30      30.66      23.73
C      25.51      30.57      22.56
C      26.60      26.58      41.01
C      27.25      25.53      41.72
C      27.66      24.36      41.05
C      27.43      24.21      39.67
C      26.71      25.21      38.98
C      26.31      26.38      39.64
C      26.75      29.03      41.02
C      26.32      27.83      41.62
C      25.55      27.91      42.81
C      25.20      29.16      43.38
C      27.04      32.68      38.74
C      26.81      31.48      40.86
C      26.55      31.59      39.47
C      27.80      33.69      39.37
C      28.02      33.61      40.76
C      27.53      32.52      41.50
C      26.43      30.29      41.55
C      25.67      30.34      42.74
C      23.82      28.41      46.79
C      24.61      28.35      45.63
C      21.03      28.97      50.02
C      20.34      27.98      50.76
C      21.45      28.70      48.72
C      24.39      29.23      44.55
C      23.34      30.18      44.66
C      22.56      30.26      45.83
C      22.78      29.36      46.90
C      21.43      30.15      50.70
C      20.87      26.69      58.46
C      20.79      29.20      58.50
C      20.73      29.23      57.08
C      19.50      29.07      56.41
C      19.46      29.08      55.00
C      20.13      28.12      52.14
C      20.62      29.25      52.83
C      20.63      29.29      54.25
C      21.86      29.45      54.93
C      21.91      29.42      56.33
C      21.24      30.28      52.08
N       8.27       0.03      18.98
N       0.30      23.93      26.78
N       0.96      22.91      26.59
N       0.47      35.13      27.36
N       7.87       1.43      34.27
N       7.85       1.52      31.24
N       6.75      13.92      33.02
N       6.70      44.60      32.36
N       7.88      57.01      34.28
N       7.88      57.10      31.24
N       0.48      23.36      37.99
N       0.27      34.56      38.57
N       0.93      35.58      38.76
N       8.29      58.40      46.54
N      14.25       5.21       9.32
N      14.92       6.22       9.51
N      13.85      52.44       9.82
N      14.52      52.62       8.81
N      13.86       5.92      55.73
N      14.53       5.73      56.74
N      14.24      53.16      56.21
N      14.92      52.15      56.03
N      20.50      15.39       3.33
N      20.89      27.65       4.86
N      20.92      27.65       1.82
N      20.91      30.69       1.91
N      20.89      30.68       4.95
N      20.46      42.96       3.56
N      22.09      28.88      17.35
N      27.91      35.32      26.34
N      27.93      23.17      39.02
N      22.15      29.54      48.05
