231

C       7.65      24.54      12.37
C       4.87      24.66      12.29
C       4.56      22.97      15.44
C       1.78      23.10      15.54
C       6.97      24.13      11.21
C       5.56      24.20      11.13
C       3.84      21.80      15.79
C       2.43      21.90      15.88
C       4.52      20.63      16.15
C       4.84      23.78      10.01
C       3.20      18.45      16.05
C       7.24      23.63       7.68
C       6.19      22.79       8.10
C       3.36      17.27      16.81
C       2.45      16.19      16.69
C       1.39      16.25      15.77
C       1.22      17.44      15.01
C       2.14      18.50      15.12
C       8.00      21.94       6.06
C       8.15      23.20       6.69
C       6.02      21.54       7.46
C       0.69      10.45      15.03
C       2.11      10.44      14.99
C       2.27      40.64      14.50
C       0.85      40.62      14.46
C       0.22      39.37      14.22
C       0.94      38.15      14.05
C       2.34      38.22      14.12
C       3.00      39.45      14.32
C       2.82      11.65      15.17
C       2.15      12.87      15.39
C       0.74      12.92      15.47
C      14.38      11.69      15.29
C      13.43       9.48      13.48
C      12.01       9.45      13.49
C      12.14      41.60      15.97
C      13.56      41.57      15.99
C      11.40      41.36      17.15
C      12.05      41.06      18.36
C      13.46      40.95      18.42
C      14.19      41.24      17.23
C      14.07       9.81      12.25
C      13.36      10.09      11.06
C      11.95       9.97      11.09
C      11.29       9.68      12.29
C      14.23       9.19      14.74
C      11.23       9.17      14.72
C       2.88       9.21      14.74
C      14.13      40.68      19.61
C      14.37      14.11      15.66
C      14.05      10.36       9.87
C       0.24      36.94      13.90
C       5.53      25.05      13.49
C       6.95      24.99      13.51
C       6.99      25.81      15.91
C       5.57      25.81      15.96
C       4.95      26.23      17.17
C       5.68      26.69      18.30
C       7.09      26.70      18.20
C       7.73      26.24      17.03
C       3.93      24.21      15.11
C       2.51      24.25      15.14
C       2.52      26.66      14.37
C       3.94      26.68      14.37
C       1.80      27.81      13.98
C       2.46      29.00      13.63
C       3.87      29.09      13.70
C       4.58      27.91      14.04
C       4.74      25.44      14.73
C       1.75      25.46      14.76
C       7.74      25.38      14.70
C       4.56      30.25      13.33
C       5.00      27.17      19.43
C      10.27      16.42       1.61
C      11.69      16.45       1.64
C      11.80      34.47      28.04
C      10.38      34.51      28.03
C       9.76      35.35      27.06
C      10.49      36.10      26.09
C      11.89      36.01      26.13
C      12.54      35.22      27.10
C      12.40      15.69       2.60
C      11.72      14.89       3.54
C      10.31      14.80       3.53
C       9.62      15.57       2.55
C       8.68      18.25       1.54
C       7.26      18.26       1.50
C       7.32      32.73      28.11
C       8.74      32.72      28.08
C       6.59      31.82      27.31
C       7.24      30.92      26.45
C       8.65      30.93      26.33
C       9.37      31.81      27.18
C       9.32      19.15       2.44
C       8.61      20.04       3.29
C       7.21      20.08       3.16
C       6.54      19.19       2.30
C       9.48      17.30       0.66
C       6.49      17.33       0.65
C      12.48      17.29       0.70
C       9.32      30.02      25.50
C       9.59      14.04       4.46
C       9.30      20.94       4.11
C       9.80      36.84      25.11
C      12.75      11.54       8.03
C      12.90      11.45       6.62
C      11.99      12.09       5.75
C      10.94      12.88       6.26
C      10.78      12.96       7.67
C      11.70      12.33       8.54
C       6.95      21.10       6.48
C      12.87      39.44      21.47
C      13.12      39.43      22.86
C      12.27      38.76      23.76
C      11.15      38.05      23.29
C      10.87      38.07      21.90
C      11.74      38.72      21.00
C       3.30      32.48      13.48
C       3.55      33.68      12.77
C       2.69      34.80      12.91
C       1.58      34.75      13.77
C       1.32      33.55      14.47
C       2.19      32.44      14.35
C       8.06      29.04      23.50
C       8.32      27.83      22.80
C       7.46      27.39      21.77
C       6.34      28.16      21.38
C       6.07      29.35      22.09
C       6.94      29.81      23.11
H       0.76      23.13      15.59
H       5.58      22.93      15.41
H       3.85      24.69      12.27
H       8.67      24.48      12.38
H       1.87      21.12      16.20
H       7.52      23.77      10.43
H       5.46      20.74      16.44
H       3.85      23.87      10.06
H       2.03      19.33      14.52
H       7.34      24.57       8.07
H       8.90      23.83       6.40
H       2.55      15.38      17.31
H       4.12      17.20      17.50
H      13.77      17.94      14.64
H       4.25      20.96       7.21
H      11.40      10.08      10.24
H      10.27       9.62      12.29
H      10.38      41.41      17.15
H      11.49      40.95      19.20
H       0.87      41.21      17.26
H       0.75       9.85      12.24
H      13.53      39.34      14.20
H       2.92      37.38      14.05
H       4.02      39.46      14.36
H      13.35      11.70      15.32
H       3.84      11.66      15.12
H       2.71      13.71      15.47
H      10.58      10.04      14.90
H      10.74      40.99      14.53
H       3.53       9.05      15.60
H       3.52       9.38      13.86
H       0.66      10.05       9.83
H       0.73      41.00      19.68
H      13.38      14.03      15.71
H      13.59      36.99      13.89
H       0.78      27.79      13.94
H       1.90      29.79      13.31
H       5.60      27.94      14.05
H       3.92      26.25      17.20
H       7.66      27.05      18.96
H       8.75      26.26      17.00
H       1.10      25.19      13.92
H       1.11      25.73      15.61
H       8.40      26.20      14.41
H       8.36      24.53      14.99
H       5.49      30.14      13.02
H       4.00      27.16      19.39
H       6.65      20.76       3.68
H       5.52      19.22       2.25
H       5.57      31.81      27.35
H       6.67      30.25      25.93
H      10.40      31.80      27.14
H      10.35      19.14       2.49
H       8.73      35.38      27.04
H      12.47      36.49      25.44
H      13.56      35.17      27.09
H       8.59      15.55       2.54
H      13.42      15.73       2.64
H      12.27      14.39       4.23
H       5.84      16.75       1.30
H       5.92      34.28      28.30
H      13.13      16.62       0.13
H      13.11      17.96       1.29
H      10.25      21.13       3.86
H      10.26      29.81      25.75
H       8.60      14.04       4.36
H       8.81      36.82      25.15
H      12.08      11.95       4.74
H      13.65      10.89       6.22
H      11.59      12.45       9.55
H       9.00      13.04       8.30
H       6.84      20.17       6.07
H      12.46      38.82      24.76
H      13.93      39.94      23.23
H      11.55      38.68      19.99
H       9.04      38.07      21.43
H       2.87      35.63      12.34
H       4.34      33.75      12.13
H       2.01      31.60      14.90
H      13.84      33.13      14.73
H       7.65      26.49      21.33
H       9.12      27.25      23.06
H       6.75      30.70      23.57
H       4.25      29.77      22.32
N       4.11      19.41      16.20
N       5.22      23.23       8.90
N      13.66      10.93       8.78
N       9.97      13.36       5.48
N       0.42      15.33      15.74
N       8.91      21.60       5.15
N      13.72      40.09      20.68
N      10.25      37.51      24.11
N       4.16      31.48      13.31
N       0.68      35.73      13.83
N       8.92      29.39      24.46
N       5.45      27.72      20.50
O       0.18      17.56      14.13
O       4.99      20.72       7.80
O       9.75      13.67       8.21
O       9.78      37.42      21.40
O       0.24      33.44      15.29
O       4.99      30.12      21.78
