22

O       1.28       4.09       9.78
O       3.38       3.83      10.63
C       2.27       3.39      10.17
C       2.13       1.90      10.10
C       0.98       1.33       9.54
C       0.85      -0.06       9.45
C       1.88      -0.89       9.93
C       3.03      -0.31      10.50
C       3.15       1.07      10.58
C       1.79      -2.36       9.82
C       0.60      -3.08      10.02
C       1.71      -5.07       9.65
C       2.92      -3.12       9.50
H       0.20       1.99       9.16
H      -0.03      -0.50       8.98
H       3.81      -0.95      10.89
H       4.03       1.53      11.01
H      -0.34      -2.60      10.27
H       1.69      -6.16       9.61
H       3.88      -2.64       9.31
N       0.57      -4.42       9.93
N       2.90      -4.46       9.43
