16

O       6.61       1.67       7.58
O       5.83       3.09       6.05
C       7.58       3.80       9.16
C       7.12       3.99       7.86
H       6.84       5.38       6.25
C       7.84       6.31       7.94
H       7.48       2.82       9.64
C       8.17       4.86       9.86
H       7.94       7.27       7.45
C       8.32       6.12       9.24
H       8.80       6.92       9.79
C       8.61       4.65      11.27
O       9.43       5.49      11.82
O       8.15       3.66      11.91
C       6.50       2.85       7.12
C       7.23       5.25       7.25
