15

H       4.45       3.87       6.34
H       2.86       4.04       5.65
O       3.20       6.74       7.01
C       4.31       5.45       4.81
C       3.31       5.47       7.14
C       3.74       4.62       5.96
O       3.03       4.91       8.27
H       3.53       6.13       4.42
O       5.39       6.73       2.60
H       4.15       3.86       3.30
H       5.75       4.03       3.98
H       5.08       6.12       5.21
C       4.86       4.62       3.66
C       5.29       5.46       2.48
O       5.57       4.89       1.36
