29

H       3.79      10.54      19.71
H       3.14       8.40      20.83
H       7.19       8.61      17.97
H       6.54       6.46      19.05
H       3.55       7.26      25.36
H       3.03       7.14      22.92
H       6.56       4.75      22.34
H       7.05       4.89      24.80
S       4.32       5.76      20.76
O       7.20      10.85      17.61
O       4.79       6.95      27.36
O       4.97       4.61      20.14
O       5.43      12.09      18.27
C       6.08      10.98      18.21
C       5.59       9.73      18.87
C       4.42       9.66      19.61
C       4.00       8.44      20.18
C       6.36       8.56      18.66
C       5.94       7.35      19.20
C       4.81       7.30      19.98
O       2.86       5.83      20.80
C       5.38       6.19      25.19
C       5.63       6.27      26.66
C       3.90       6.64      23.32
C       4.77       5.89      22.49
C       5.89       5.28      23.01
C       6.22       5.43      24.36
C       4.23       6.77      24.67
O       6.61       5.64      27.16
