28

C       2.10       3.08       6.92
C       0.96       3.91       7.10
C       0.20       4.28       6.00
C       2.87       2.65       8.03
H       1.95       2.73       3.52
H       3.36       2.07       5.48
H       0.69       4.23       8.10
H      -0.68       4.91       6.11
O       7.66       0.02      13.26
O      -1.17       5.17       3.67
O      -0.03       3.73       2.39
H       6.90      -0.18      11.02
H       5.55       0.41       9.01
H       3.17       3.08      11.43
H       4.52       2.44      13.45
O       6.45       1.33      14.64
C       3.98       2.37      11.36
C       4.73       2.02      12.47
C       6.70       0.80      13.51
C       5.81       1.12      12.34
C       6.08       0.53      11.09
C       5.33       0.86       9.98
C       4.28       1.81      10.09
C       3.54       2.23       8.96
C      -0.28       4.26       3.53
C       0.54       3.84       4.71
C       1.68       3.04       4.53
C       2.46       2.67       5.61
