12

Zn       3.44       4.26      11.62
N       1.45       4.06      11.82
H       0.97       3.41      12.46
N       0.67       4.77      11.11
C       5.14       1.89      11.43
C       5.14       4.45      14.01
C       4.73       4.41       8.92
O       3.97       2.37      11.55
O       3.66       6.23      11.61
O       3.96       4.32      13.50
O       3.68       4.28       9.66
C       4.73       6.94      11.50
