34

H       1.67       8.65      13.99
H       0.86       9.29      11.73
H       5.56      10.23      13.04
H       0.92       9.10       9.32
H       0.35      10.64      10.05
H       1.02      10.61       8.38
H       3.96      10.54       7.70
H       3.94      12.08       5.72
H       7.91      13.39       6.67
H       7.93      11.90       8.70
S       5.93      10.06       9.69
O       3.40       8.46      15.84
O       5.47       9.00      15.16
O       2.43      10.46       9.83
O       4.95      11.03      10.63
O       5.23       8.83       9.39
O       7.24      10.02      10.33
O       4.88      13.86       4.21
O       7.03      14.36       4.68
C       4.21       8.93      14.98
C       3.67       9.38      13.67
C       2.35       9.13      13.28
C       1.89       9.49      12.01
C       2.75      10.11      11.09
C       4.08      10.38      11.51
C       4.53      10.02      12.76
C       1.09      10.18       9.39
C       5.96      11.13       8.28
C       4.82      11.16       7.46
C       4.82      12.01       6.36
C       5.94      12.81       6.08
C       7.06      12.76       6.92
C       7.07      11.93       8.03
C       5.94      13.74       4.90
