34

C       0.73       2.94       4.35
C      -0.13       4.08       4.73
C       0.34       5.39       4.50
C      -0.44       6.47       4.85
C      -1.71       6.31       5.45
C      -2.17       5.00       5.69
C      -1.39       3.91       5.32
C      -3.67       7.32       6.39
C       1.18      10.00       4.82
C       2.37      10.39       4.20
C       2.41      11.61       3.54
C       1.28      12.43       3.50
C       0.09      12.02       4.12
C       0.03      10.80       4.80
C       1.32      13.78       2.83
S       1.10       8.42       5.61
H       1.31       5.54       4.06
H      -3.15       4.85       6.14
H      -1.77       2.90       5.49
H      -3.55       6.85       7.38
H      -4.38       6.77       5.77
H      -4.03       8.35       6.52
H       3.24       9.74       4.22
H       3.33      11.93       3.05
H      -0.78      12.67       4.08
H      -0.89      10.47       5.27
O       0.28      14.49       2.82
O       2.43      14.15       2.30
O       2.38       7.73       5.47
O       0.00       7.77       4.54
O       1.95       3.14       4.08
O       0.23       1.74       4.34
O      -2.39       7.45       5.73
O       0.47       8.50       6.91
