80

Nd       7.78       3.10       6.07
Nd       3.30      17.60       7.08
H       8.76      13.58       4.38
H       8.72      11.11       4.15
H       3.57      10.89       6.11
H       3.61      13.36       6.31
H       9.36       9.27       3.26
H       8.98       6.81       3.35
H       2.44       6.57       6.88
H       2.73       9.02       6.87
H       7.22      15.23      10.09
H       7.17      13.93      12.18
H      11.44      14.30      12.49
H      11.49      15.48      10.32
H       4.27       7.11       8.74
H       4.23       9.59       8.98
H       8.05       9.82       7.02
H       8.09       7.35       6.83
H       4.86      11.44       9.87
H       4.48      13.89       9.77
H       6.92      14.13       6.25
H       7.22      11.68       6.27
H       2.76       5.48       3.03
H       2.72       6.78       0.93
H       7.00       6.40       0.66
H       7.03       5.22       2.83
C      10.61      15.11       5.58
C      10.65      13.63       5.38
C       9.58      12.98       4.75
C       9.57      11.59       4.62
C      10.61      10.81       5.14
C       2.73      11.47       5.73
C       2.76      12.86       5.84
C      10.54       9.33       5.07
C       9.80       8.68       4.07
C       9.60       7.31       4.10
C      10.16       6.53       5.13
C      10.96       7.17       6.09
C       2.16       8.54       6.07
C       9.78       5.11       5.28
C       9.42      16.23       8.80
C       9.36      15.43      10.05
C       8.15      15.00      10.61
C       8.12      14.27      11.80
C       9.31      13.97      12.50
C      10.52      14.45      11.95
C      10.55      15.15      10.75
C       6.11       5.59       7.56
C       6.16       7.07       7.75
C       5.09       7.72       8.38
C       5.08       9.11       8.51
C       6.12       9.89       8.00
C       7.21       9.23       7.40
C       7.24       7.84       7.29
C       6.04      11.37       8.06
C       5.30      12.02       9.06
C       5.10      13.40       9.02
C       5.67      14.17       8.00
C       6.47      13.54       7.04
C       6.65      12.16       7.06
C       5.30      15.60       7.84
C       4.95       4.47       4.34
C       4.90       5.27       3.08
C       3.69       5.71       2.52
C       3.67       6.44       1.33
C       4.87       6.74       0.64
C       6.07       6.25       1.19
C       6.09       5.56       2.39
O       9.49      15.70       5.43
O       2.74      15.69       5.89
O      10.20       4.45       6.32
O       8.96       4.58       4.47
O       8.33      16.41       8.15
O      10.55      16.71       8.44
O       4.99       4.99       7.70
O       7.21       5.01       7.25
O       5.74      16.25       6.81
O       4.46      16.13       8.63
O       3.86       4.29       4.98
O       6.07       4.00       4.70
