14

O       5.12      11.12       9.83
O       7.40      13.91       9.83
Cu       5.04      12.52      11.23
Cu       7.48      12.52      11.23
O       7.40      11.12      12.62
O       5.12      13.91      12.62
O       7.40      13.91      12.62
O       5.12      11.12      12.62
C       6.26      10.68       9.45
O       5.12      13.91       9.83
O       7.40      11.12       9.83
C       6.26      14.35       9.45
C       6.26      10.68      13.01
C       6.26      14.35      13.01
