26

O       3.62       2.60      10.68
C       2.44       2.51      11.45
C       2.46       1.20      12.23
C       1.17       0.98      13.01
C       4.56       6.16      10.30
C       4.26       6.35       8.96
C       3.76       5.29       8.19
C       3.44       4.08       8.81
C       3.74       3.87      10.16
C       4.39       4.90      10.88
C       3.59       5.49       6.76
C       5.09       4.63      12.14
H       3.02       3.26       8.24
H       5.01       6.98      10.84
H       1.57       2.53      10.78
H       2.36       3.35      12.18
H       2.60       0.34      11.53
H       3.31       1.20      12.94
H       1.01       1.81      13.74
H       1.24       0.02      13.58
H       0.31       0.91      12.32
H       4.49       7.29       8.50
O       5.00       3.47      12.67
O       5.92       5.49      12.56
O       3.19       4.46       6.08
O       4.46       6.27       6.18
