26

O      10.22       9.23      17.36
C      16.27       9.81      19.44
C      13.84       9.65      19.47
C      11.39       9.52      19.45
O      15.20       8.57      16.18
O      15.13      10.56      21.37
C      11.40       9.39      18.06
C      16.29       9.36      18.12
C      12.56       8.96      21.53
C      12.56      10.09      16.01
C      15.10       9.14      17.43
C      15.07       9.98      20.12
C      12.62       9.46      17.36
C      12.61       9.54      20.17
C      13.85       9.40      18.07
H      17.24       9.18      17.63
H      17.21      10.03      19.93
H       9.54       8.98      19.72
H       9.53       9.84      17.75
H      14.35       8.10      15.97
H      14.26      11.00      21.55
O      13.62       8.47      22.07
O      13.61      10.59      15.49
O      11.42       8.67      21.98
O      11.41      10.39      15.58
O      10.18       9.62      20.12
