11

C       5.24       0.34      13.36
O       3.38       2.71      13.24
C       4.00      -0.80      14.98
N       4.40       0.37      14.42
Cu       3.68       2.12      15.11
C       1.61       4.15      15.04
C       3.11       4.47      16.80
O       3.75       1.34      16.97
C       4.93       1.62      17.41
N       2.69       3.75      15.74
C       4.25       3.60      12.83
