11

O       6.94       0.33      11.20
O       8.31       0.48       7.47
Cu       7.61       0.24       9.32
N       5.71       0.34       8.70
N       9.48       0.43       9.99
C       5.29      -0.37       7.63
C       6.60      -0.86      11.61
C       4.83       1.12       9.37
C       8.65      -0.69       7.02
C      10.30       1.33       9.41
C       9.92      -0.30      11.04
