24

H       3.32       7.41       1.90
H       6.33      10.23       2.11
H       3.89       6.50       4.14
H       6.92       9.56       4.41
H       6.59       8.22       6.32
H       7.94       6.63      10.49
H       4.92       3.82      10.27
H       7.39       7.54       8.24
H       4.35       4.49       7.96
H       4.69       5.83       6.05
C       4.13       7.83       2.49
C       5.80       9.43       2.60
C       4.45       7.34       3.75
C       6.12       9.04       3.89
C       5.46       7.97       4.51
C       5.86       7.57       5.85
C       7.13       6.21       9.89
C       5.46       4.62       9.78
C       6.83       6.70       8.63
C       5.14       5.01       8.48
C       5.82       6.08       7.87
C       5.42       6.48       6.52
N       4.78       8.87       1.91
N       6.48       5.18      10.47
