18

O       0.87       2.97       0.52
O       2.58       1.59       1.01
O       2.57       8.27      -0.13
O       2.30       7.16      -2.11
C       5.77       7.02      -0.64
C       4.50       3.69       0.40
C       4.79       5.89      -0.32
C       5.17       2.45       0.93
C       2.11       2.70       0.64
C       3.39       6.03      -0.40
C       3.10       3.84       0.32
C       2.70       7.27      -0.93
N       5.32       4.72       0.08
N       2.57       5.01      -0.08
O       7.01       6.75      -0.55
O       5.31       8.14      -1.00
O       5.29       1.46       0.13
O       5.59       2.56       2.11
