40

C       7.93      11.43      11.75
C       9.22       7.23      16.48
C       8.19       8.18      16.33
C       8.86       5.17      10.92
O       8.39       4.79       7.34
H       8.88       7.06       8.07
O       7.52      13.74      13.27
O       7.84       3.36       9.02
H       7.47       7.67      13.03
O       9.42       5.78      13.14
H       6.80       9.10      14.96
O       9.68       9.04       9.54
H       7.44       9.47      10.98
O       7.92       8.39      18.67
H      10.46       5.76      15.48
H      11.26      11.06       9.78
O       9.44      14.66      12.59
H       8.65       4.16      11.27
O       6.97       9.97      17.40
H       9.88       8.21      12.10
H      10.81      13.13      11.10
H       6.99      11.54      12.28
H       9.67       7.10      17.46
C       8.18      10.27      11.02
C      10.33      11.18      10.33
C       9.65       6.48      15.39
C       8.60      13.70      12.59
C       9.38       7.77      10.04
C       9.26       6.16      11.82
C       9.39      10.15      10.32
C       8.88      12.47      11.79
C       8.74       5.50       9.56
C      10.07      12.33      11.07
C       8.99       6.80       9.12
C       8.29       4.46       8.57
C       7.98       7.57      13.99
C       9.01       6.64      14.15
C       7.60       8.36      15.07
C       9.54       7.46      11.39
C       7.68       8.90      17.52
