26

Zn       2.84      11.53      15.99
Zn       1.99       8.62      17.54
Zn      -0.04      10.24      16.03
Zn       0.73      12.98      14.36
O       2.24      14.26      14.35
O       3.92      12.73      14.59
O       1.46      10.47      17.21
O       3.32       8.61      16.10
O       2.61      13.12      17.12
O       4.52      10.49      16.29
O       0.45      13.49      16.47
O       0.56       8.16      18.78
H       1.19      10.93      18.04
H       1.67      10.66      13.94
O       1.38      11.17      14.74
O      -1.15       9.07      17.49
O      -0.19       8.78      14.76
O      -1.58      11.49      16.07
O       0.86       7.34      16.17
O      -1.22      12.67      14.14
C      -2.04      12.12      15.02
C       0.28       7.58      15.03
C       3.51      13.94      14.25
C       4.45       9.19      16.41
C       1.46      13.76      17.27
C      -0.73       8.33      18.51
