36

C      18.64      12.57      14.66
C      18.42      13.34       8.99
Co      19.50      11.06      12.22
C      20.34      12.57       9.78
Co      16.49      12.23      11.05
Co      25.49      13.39      12.21
Co      22.48      12.23      13.38
C      24.41      11.13      15.45
C      26.33      11.88      14.65
C      15.40      15.46      13.33
C      17.32      14.67      12.57
C      21.42       8.99      11.11
C      23.34       9.79      11.88
N      23.84      14.41      11.92
N      22.65      13.91      12.39
N      17.84      10.04      12.51
N      16.65      10.54      12.04
N      14.84      11.93      10.03
N      13.64      12.40      10.52
N      20.84      12.52      14.41
N      19.65      12.04      13.91
N      18.15      12.52      10.04
N      19.34      12.05      10.53
N      24.14      11.94      14.41
N      25.33      12.41      13.90
N      15.13      14.42      12.51
N      16.32      13.92      12.04
N      21.14      10.03      11.93
N      22.34      10.53      12.40
C      23.56      15.45      11.10
C      21.65      14.66      11.87
C      17.57       9.00      13.32
C      15.65       9.79      12.57
C      14.56      11.11       8.99
C      12.64      11.87       9.77
C      20.56      13.34      15.45
