128

C       5.45       6.98       4.42
C       6.15       6.25       3.46
C       6.85       6.94       2.46
C       6.84       8.35       2.51
C       6.13       8.99       3.51
C       7.56       6.22       1.39
C       7.51       4.72       1.38
C       6.34      -3.49       8.27
C       7.67      -3.81       8.94
C       8.23       8.10       8.49
C       7.25       6.95       8.76
C       7.67       5.61       8.19
C       6.87       0.36       9.80
C       6.18      -0.36      10.77
C       5.47       0.33      11.76
C       5.48       1.73      11.71
C       6.20       2.37      10.71
C       4.76      -0.39      12.84
C       4.81      -1.89      12.85
C       5.98       3.14       5.95
C       4.65       2.81       5.28
C       4.09       1.47       5.74
C       5.07       0.32       5.47
C       4.65      -1.02       6.04
C       2.63      -0.33       9.80
C       1.94       0.39      10.77
C       1.23      -0.30      11.76
C       1.24      -1.70      11.71
C       1.96      -2.34      10.72
C       0.52       0.43      12.84
C       0.57       1.92      12.85
C       1.74      10.13       5.95
C       0.42      10.45       5.28
C      -0.14      -1.45       5.74
C       0.83      -0.31       5.46
C       0.41       1.03       6.04
C       1.21       6.29       4.43
C       1.91       7.01       3.46
C       2.61       6.32       2.46
C       2.60       4.91       2.52
C       1.89       4.27       3.51
C       3.32       7.04       1.39
C       3.27       8.53       1.38
C       2.10       3.51       8.28
C       3.43       3.83       8.95
C       3.99       5.18       8.49
C       3.02       6.33       8.76
C       3.43       7.67       8.19
Cu       4.48       9.37       6.06
Cu       7.84       2.75       8.17
Cu       3.61      -2.72       8.17
Cu       0.24       3.90       6.06
H       4.89       6.48       5.21
H       6.15       5.17       3.53
H       7.39       8.92       1.76
H       6.09      10.07       3.58
H       8.11       4.32       0.56
H       6.47       4.39       1.27
H       7.87       4.32       2.34
H       7.52      -3.78      10.03
H      -0.09      -3.01       8.68
H      -0.04       8.14       7.41
H       0.71       7.93       8.99
H       7.07       6.83       9.84
H       6.29       7.18       8.28
H       7.44      -0.14       9.01
H       6.18      -1.45      10.70
H       4.94       2.30      12.46
H       6.24       3.46      10.64
H       4.21      -2.29      13.67
H       5.85      -2.22      12.95
H       4.45      -2.29      11.89
H       4.80       2.84       4.19
H       3.93       3.60       5.54
H       3.89       1.51       6.82
H       3.13       1.30       5.24
H       5.25       0.20       4.39
H       6.03       0.55       5.95
H       3.20       0.17       9.01
H       1.94       1.48      10.70
H       0.70      -2.27      12.47
H       2.00      -3.43      10.64
H      -0.03       2.32      13.67
H       1.62       2.26      12.95
H       0.21       2.33      11.89
H       0.57      10.42       4.20
H       8.18       9.66       5.55
H       8.13      -1.49       6.82
H       7.37      -1.29       5.23
H       1.02      -0.18       4.39
H       1.80      -0.54       5.94
H       0.65       6.78       5.21
H       1.91       8.09       3.53
H       3.15       4.34       1.76
H       1.85       3.19       3.59
H       3.87       8.93       0.56
H       2.23       8.87       1.27
H       3.64       8.94       2.33
H       3.28       3.80      10.04
H       4.15       3.04       8.68
H       4.20       5.14       7.41
H       4.95       5.35       8.99
H       2.83       6.45       9.84
H       2.05       6.09       8.28
N       5.43       8.32       4.45
N       8.16       6.97       0.51
N       6.90       1.70       9.78
N       4.16       0.36      13.72
N       2.66      -1.67       9.78
N      -0.08      -0.32      13.72
N       1.19       4.94       4.45
N       3.93       6.29       0.51
O       5.44      -2.91       8.97
O       7.44       4.58       8.91
O       6.22       9.40       7.06
O       8.18       5.60       7.02
O       6.88       3.72       5.25
O       4.88      -2.05       5.32
O       6.10       2.78       7.16
O       4.15      -1.03       7.21
O       2.64       9.55       5.25
O       0.64       2.06       5.32
O       1.87      -2.75       7.17
O      -0.10       1.04       7.21
O       1.21       2.93       8.97
O       3.21       8.70       8.91
O       1.98       3.87       7.06
O       3.94       7.67       7.02
