360

C     -12.75       6.66      25.96
C     -10.82       6.86      24.56
C     -11.49       8.70      25.93
C      -9.91       6.28      23.64
C      -9.82       4.87      23.49
C      -8.90       4.29      22.60
C      -8.05       5.09      21.80
C      -8.15       6.50      21.94
C      -9.05       7.08      22.85
C     -13.83       5.89      26.48
C     -14.14       4.61      25.98
C     -15.19       3.85      26.52
C      -1.89      16.30       0.32
C      -1.59      17.59       0.82
C      -0.55      18.35       0.27
C     -11.28      10.01      26.45
C       2.01      22.46       0.25
C       2.26      23.73       0.81
C       3.28      24.56       0.30
C     -10.04      12.14      26.48
C     -10.27      10.86      25.93
C      11.08      15.23      10.98
C      11.82      13.34       9.73
C       9.77      13.23      10.94
C      12.77      12.74       8.85
C      14.08      13.27       8.71
C      15.01      12.69       7.83
C      14.67      11.56       7.04
C      13.36      11.04       7.17
C      12.44      11.61       8.07
C      11.22      16.59      11.39
C      12.39      17.33      11.12
C      12.50      18.68      11.50
C      11.43      19.35      12.14
C      10.26      18.61      12.43
C      10.16      17.26      12.07
C       8.59      12.54      11.35
C       7.53      13.22      11.99
C       6.34      12.56      12.36
C       6.19      11.18      12.12
C       7.25      10.48      11.51
C       8.42      11.15      11.12
C       9.80       3.18      17.50
C      11.86       2.02      17.15
C      11.10       2.44      19.37
C      12.80       1.44      16.25
C      12.46       1.16      14.90
C      13.38       0.58      14.02
C      14.70       0.25      14.44
C      15.04       0.53      15.79
C      14.11       1.10      16.67
C       8.63       3.82      17.00
C       8.45       4.06      15.61
C       7.27       4.66      15.13
C       6.23       5.02      16.01
C       6.41       4.80      17.39
C       7.59       4.21      17.87
C      11.22       2.30      20.78
C      10.15       2.63      21.65
C      10.24       2.43      23.04
C      11.41       1.91      23.62
C      12.50       1.60      22.77
C      12.40       1.79      21.37
C     -11.48      18.79      19.39
C     -10.82      18.22      17.17
C     -12.77      19.57      17.53
C      -9.91      17.60      16.27
C      -8.60      17.25      16.69
C      -7.69      16.66      15.80
C      -8.04      16.39      14.46
C      -9.35      16.73      14.04
C     -10.26      17.33      14.93
C     -11.27      18.75      20.80
C     -10.29      17.91      21.38
C     -10.07      17.89      22.78
C     -10.82      18.72      23.63
C     -11.81      19.56      23.07
C     -12.03      19.56      21.68
C     -13.86      20.34      17.04
C     -14.63      21.15      17.92
C     -15.66      21.96      17.44
C     -15.98      22.00      16.06
C     -15.24      21.17      15.19
C     -14.19      20.37      15.67
C      -2.24       2.82      17.00
C      -4.29       2.70      18.21
C      -3.54       0.81      16.96
C      -5.23       3.30      19.09
C      -4.88       4.43      19.88
C      -5.80       5.01      20.77
C      -7.12       4.50      20.90
C      -7.47       3.38      20.11
C      -6.54       2.79      19.23
C      -1.06       3.53      16.61
C      -0.88       4.90      16.93
C       0.30       5.58      16.56
C       1.34       4.91      15.88
C       1.16       3.55      15.55
C      -0.02       2.88      15.91
C      -3.67      -0.55      16.55
C      -2.62      -1.21      15.87
C      -2.72      -2.57      15.52
C      -3.88      -3.31      15.82
C      -4.95      -2.65      16.47
C      -4.84      -1.29      16.83
C      19.09       7.39       2.00
C      18.42       9.24       3.37
C      20.34       9.43       1.96
C      17.50       9.81       4.29
C      16.64       9.01       5.07
C      15.72       9.58       5.97
C      15.62      10.98       6.13
C      16.48      11.79       5.35
C      17.41      11.22       4.45
C      18.88       6.08       1.49
C      17.89       5.22       2.02
C      17.66       3.94       1.48
C      18.41       3.49       0.37
C       5.34      -7.63      27.12
C      19.65       5.60       0.40
C      21.44      10.18       1.43
C      22.17       9.70       0.31
C       9.16      -1.52      27.04
C      23.60      11.69       0.31
C      22.89      12.17       1.43
C      21.82      11.43       1.98
C      -3.55      13.72       8.56
C      -4.29      14.06      10.80
C      -2.28      12.84      10.39
C      -5.23      14.63      11.71
C      -6.10      15.67      11.31
C      -7.01      16.25      12.21
C      -7.10      15.80      13.54
C      -6.24      14.76      13.95
C      -5.31      14.19      13.05
C      -3.69      13.92       7.16
C      -4.85      14.52       6.60
C      -4.96      14.74       5.22
C      -3.92      14.38       4.34
C      -2.77      13.76       4.88
C      -2.66      13.53       6.26
C      -1.11      12.16      10.84
C      -0.05      11.84       9.95
C       1.13      11.24      10.40
C       1.30      10.91      11.77
C       0.24      11.19      12.66
C      -0.94      11.82      12.21
C      20.32      -3.53      10.40
C      18.41      -2.16      10.80
C      19.05      -2.68       8.56
C      17.50      -1.55      11.71
C      17.42      -1.97      13.06
C      16.50      -1.38      13.95
C      15.64      -0.34      13.54
C      15.73       0.09      12.19
C      16.64      -0.50      11.29
C      21.42      -4.31      10.87
C      21.78      -4.33      12.24
C      22.84      -5.13      12.71
C       9.50      23.84      11.82
C       9.15      23.86      10.45
C       8.10      24.67       9.99
C      18.82      -2.63       7.15
C       5.52      26.36       6.27
C       5.27      26.36       4.88
C       4.25      27.17       4.33
C      17.57      -1.79       5.20
C      17.82      -1.81       6.59
C       3.54      25.82       0.91
C       3.76      25.90       2.30
C       3.98      27.13       2.93
C       3.95      28.31       2.15
C       3.77      28.31       0.73
C       3.58      27.02       0.15
C       4.97      10.52      12.45
C       3.74      11.02      11.96
C       2.53      10.36      12.24
C       2.56       9.17      13.00
C       3.76       8.62      13.54
C       4.95       9.35      13.24
C      11.48       1.63      25.01
C      10.49       0.83      25.62
C      10.55       0.51      26.99
C      25.71      12.97       0.46
C     -20.28       1.84      27.20
C      12.52       2.14      25.82
C     -17.01      22.86      15.59
C      -2.92      -5.56      15.92
C      -3.95      -4.70      15.50
C      -5.02      -5.23      14.75
C     -19.16      23.19      14.35
C     -18.08      22.37      14.80
C       4.06      -9.73      27.04
C       3.79      -9.80      25.66
C     -10.56      18.76      25.03
C     -10.56      17.59      25.82
C     -10.29      17.58      27.22
C      18.12       1.03       0.51
C       2.55       5.57      15.55
C       3.78       5.00      15.92
C       5.01       5.58      15.54
C       4.98       6.74      14.72
C       3.77       7.40      14.34
C       2.57       6.78      14.81
C      -3.99      14.64       2.94
C      -2.94      15.33       2.31
C      -2.93      15.53       0.91
C      -3.98      14.98       0.15
C      -5.11      14.32       0.73
C      -5.07      14.19       2.15
C      10.54      22.98      12.29
C      10.50      21.61      11.99
C      11.50      20.74      12.45
C      12.56      21.27      13.21
C     -20.27      22.65      13.55
C      11.61      23.48      13.06
H     -15.37       2.91      26.14
H     -13.60       4.20      25.21
H      -2.14      17.99       1.59
H      -0.37      19.27       0.67
H       1.28      21.89       0.67
H       1.68      24.03       1.60
H      -9.69      10.56      25.15
H      -9.28      12.71      26.09
H      -9.09       8.10      22.91
H      -7.57       7.12      21.37
H      -8.85       3.27      22.56
H     -10.40       4.25      24.06
H      13.36      19.19      11.26
H      13.18      16.90      10.64
H       9.47      19.05      12.90
H       9.29      16.77      12.28
H       7.58      14.23      12.18
H       5.60      13.10      12.82
H       9.16      10.61      10.66
H       7.16       9.48      11.30
H      11.50      11.20       8.11
H      13.06      10.25       6.60
H      15.95      13.09       7.79
H      14.38      14.07       9.27
H       7.17       4.80      14.12
H       9.17       3.80      14.94
H       5.68       5.06      18.06
H       7.67       4.06      18.88
H       9.27       2.99      21.28
H       9.43       2.66      23.62
H      13.21       1.53      20.80
H      13.36       1.20      23.15
H      14.41       1.30      17.63
H      15.98       0.34      16.13
H      13.08       0.37      13.07
H      11.52       1.36      14.55
H      -9.33      17.29      23.15
H      -9.71      17.30      20.80
H       1.69      -9.62      23.66
H     -12.75      20.19      21.32
H     -14.43      21.18      18.92
H      -2.12      -7.25      18.11
H     -13.67      19.81      14.99
H     -15.44      21.18      14.18
H     -11.20      17.55      14.58
H      -9.67      16.53      13.09
H      -6.74      16.46      16.14
H      -8.29      17.44      17.65
H       0.40       6.57      16.83
H      -1.60       5.42      17.44
H       1.88       3.04      15.05
H      -0.10       1.89      15.65
H      -1.75      -0.72      15.64
H      -1.93      -3.01      15.04
H      -5.63      -0.86      17.32
H      -5.80      -3.16      16.71
H      -6.85       1.99      18.67
H      -8.41       2.99      20.14
H      -5.49       5.80      21.34
H      -3.94       4.82      19.84
H      16.91       3.37       1.87
H      17.31       5.52       2.81
H       5.91      -7.93      26.33
H       6.31      -5.79      27.25
H       7.87      -3.15      27.16
H       9.65      -1.89      26.23
H      21.32      11.82       2.78
H      23.11      13.08       1.84
H      17.99      11.85       3.90
H      16.42      12.81       5.40
H      15.14       8.95       6.53
H      16.68       7.99       5.00
H      -5.80      15.21       4.86
H      -5.62      14.82       7.21
H      -2.00      13.47       4.27
H      -1.80      13.09       6.60
H      -0.12      12.08       8.96
H       1.87      11.04       9.73
H      -1.67      12.03      12.89
H       0.34      10.99      13.66
H      -4.72      13.43      13.39
H      -6.28      14.38      14.90
H      -7.59      17.02      11.87
H      -6.06      16.04      10.35
H      23.06      -5.13      13.71
H      21.27      -3.77      12.93
H       9.67      23.29       9.77
H       7.88      24.64       8.99
H       6.26      25.74       6.61
H       5.84      25.76       4.28
H      17.24      -1.21       7.19
H      16.82      -1.21       4.84
H      16.67      -0.15      10.33
H      15.15       0.86      11.85
H      16.45      -1.75      14.90
H      18.00      -2.73      13.41
H      18.17      -0.61       2.66
H     -10.64      14.95      26.44
H       3.76      25.03       2.85
H       1.67       8.69      13.11
H       5.85       9.06      13.62
H       3.74      11.88      11.40
H      25.75      12.66       1.43
H      13.17       2.77      25.35
H       9.72       0.47      25.05
H      -5.74      -4.57      14.47
H     -18.04      21.38      14.58
H      -2.15      -5.19      16.48
H     -10.81      16.73      25.33
H      18.36       1.12       1.49
H       3.79      -8.94      25.10
H       5.88       7.10      14.43
H       1.66       7.18      14.60
H       3.79       4.14      16.48
H     -17.99       3.15      26.43
H      -5.83      13.74       2.65
H      -2.16      15.69       2.87
H      13.25      20.60      13.55
H      25.68      -5.31      13.22
H       9.72      21.24      11.43
N     -11.87       6.15      25.05
N     -10.66       8.13      25.02
N     -12.52       7.93      26.38
N      11.98      14.62      10.17
N      10.70      12.67      10.13
N       9.98      14.51      11.34
N      10.74       2.64      16.68
N      12.01       1.93      18.50
N      10.01       3.05      18.83
N     -10.64      18.17      18.52
N     -11.89      18.93      16.71
N     -12.52      19.48      18.87
N      -3.17       3.37      17.82
N      -4.44       1.42      17.77
N      -2.45       1.54      16.60
N      18.26       7.96       2.91
N      19.47       9.95       2.87
N      20.12       8.16       1.55
N      -4.43      14.22       9.46
N      -3.20      13.36      11.24
N      -2.48      13.04       9.06
N      19.46      -2.90      11.24
N      18.22      -2.07       9.45
N      20.08      -3.40       9.07
