22

Zn       7.87       6.40       4.12
Zn       9.48       3.61       4.12
Zn       6.26       3.61       4.12
C       5.55       5.89       2.25
C       7.86       1.86       2.25
O       6.20       6.76       5.35
O       5.46       4.62       5.79
O      10.62       4.88       5.35
O       9.14       6.59       5.79
O       6.78       1.99       5.35
O       9.00       2.42       5.79
O       9.53       6.76       2.88
O      10.27       4.62       2.44
O       5.11       4.88       2.88
O       6.59       6.59       2.44
O       8.95       1.99       2.88
O       6.73       2.42       2.44
O       7.87       4.54       4.12
C       5.54       5.88       5.98
C      10.18       5.89       5.98
C       7.87       1.86       5.98
C      10.19       5.88       2.25
