780

C      13.57      15.63      58.26
C      12.84      14.46      58.26
C      12.62      14.08      59.59
C      13.79      16.01      59.59
C      14.48      17.18      60.00
C      14.64      17.59      61.35
C      14.54      17.64       1.14
C      15.16      18.82       0.71
C      15.23      18.79      61.78
C      14.30      17.27       2.49
C      13.70      16.06       2.91
C      12.71      14.03       2.91
C      12.91      14.42       4.23
C      13.51      15.66       4.23
C      12.11      12.81       2.49
C      11.87      12.44       1.14
C      11.77      12.49      61.35
C      11.19      11.30      61.78
C      11.25      11.26       0.71
C      11.93      12.91      60.00
C      11.42      12.04      59.00
C      12.27      11.11      58.37
C      11.75      10.15      57.48
C      10.36      10.09      57.21
C       9.51      11.04      57.83
C      10.03      12.00      58.72
C       9.84       9.10      56.31
C       8.92       9.44      55.29
C       8.59       8.52      54.27
C       9.19       7.24      54.22
C      10.03       6.87      55.30
C      10.34       7.78      56.33
C      11.63      11.92       3.49
C      12.44      10.89       4.00
C      11.91       9.91       4.86
C      10.53       9.93       5.21
C       9.73      10.99       4.71
C      10.27      11.97       3.86
C       9.96       8.96       6.07
C      10.52       8.70       7.34
C       9.80       7.97       8.31
C       8.50       7.49       8.04
C       8.00       7.64       6.72
C       8.72       8.36       5.75
C      14.79      18.16       3.49
C      13.97      19.20       3.99
C      14.51      20.17       4.86
C      15.88      20.15       5.21
C      16.68      19.09       4.71
C      16.15      18.11       3.86
C      16.46      21.13       6.07
C      17.70      21.72       5.75
C       5.78       0.55       6.72
C       5.28       0.70       8.03
C       3.98       0.22       8.31
C      15.89      21.38       7.34
C      15.00      18.05      59.00
C      14.14      18.98      58.37
C      16.38      18.08      58.71
C      16.90      19.04      57.82
C      16.06      20.00      57.21
C      14.67      19.93      57.48
C      16.57      20.98      56.31
C       3.43       0.42      56.33
C       3.74       1.33      55.31
C       4.58       0.96      54.23
C      17.81      21.56      54.27
C      17.49      20.65      55.29
C      26.17      14.43      16.63
C      25.52      15.65      16.63
C      25.30      16.03      17.96
C      26.38      14.05      17.96
C      27.05      12.86      18.37
C      27.33      12.52      19.72
C      27.42      12.58      21.95
C      28.13      11.45      21.52
C      28.07      11.42      20.15
C      27.22      12.97      23.30
C      26.47      14.10      23.72
C      25.21      15.97      23.72
C      25.45      15.61      25.05
C      26.23      14.46      25.05
C      24.46      17.10      23.30
C      24.26      17.49      21.95
C      24.35      17.55      19.72
C      23.61      18.66      20.15
C      23.55      18.62      21.52
C      24.63      17.21      18.37
C      24.13      18.09      17.37
C      22.90      17.82      16.74
C      22.34      18.75      15.85
C      22.98      19.99      15.58
C      24.22      20.24      16.20
C      24.80      19.31      17.09
C      22.38      20.92      14.68
C      23.14      21.56      13.67
C       9.87       0.41      12.65
C       8.46       0.53      12.60
C      20.35      21.88      13.68
C      20.98      21.15      14.70
C      23.93      17.96      24.30
C      22.62      17.78      24.81
C      22.05      18.73      25.67
C      22.75      19.91      26.02
C      24.07      20.07      25.53
C      24.65      19.11      24.68
C      22.19      20.89      26.89
C      21.69      20.53      28.16
C      21.42      21.52      29.13
C       9.02       1.00      28.85
C       9.40       1.36      27.54
C       9.66       0.38      26.57
C      27.75      12.11      24.30
C      29.06      12.30      24.81
C      29.63      11.34      25.68
C      28.92      10.16      26.02
C      27.61      10.00      25.53
C      27.03      10.95      24.68
C      29.48       9.18      26.89
C      29.38       7.81      26.57
C       4.37       6.82      27.54
C       4.75       7.18      28.85
C       4.98       8.55      29.13
C      29.99       9.54      28.16
C      27.55      11.98      17.37
C      28.78      12.26      16.74
C      26.89      10.77      17.08
C      27.46       9.84      16.19
C      28.71      10.09      15.58
C      29.35      11.33      15.85
C      29.31       9.16      14.68
C       5.43       8.93      14.70
C       6.06       8.20      13.67
C       5.32       7.66      12.59
C      29.19       7.79      12.64
C      28.55       8.52      13.66
C      18.83       4.12      37.44
C      20.21       4.07      37.44
C      20.65       4.07      38.77
C      18.39       4.13      38.77
C      17.03       4.14      39.19
C      16.60       4.07      40.54
C      16.60       3.96      42.77
C      15.27       3.91      42.34
C      15.27       3.98      40.96
C      17.04       3.93      44.12
C      18.39       4.02      44.54
C      20.64       4.18      44.54
C      20.21       4.15      45.87
C      18.83       4.05      45.87
C      22.00       4.26      44.12
C      22.44       4.24      42.77
C      22.44       4.13      40.54
C      23.77       4.22      40.97
C      23.77       4.29      42.34
C      22.01       4.06      39.19
C      23.02       4.05      38.19
C      23.40       5.25      37.56
C      24.49       5.27      36.67
C      25.24       4.10      36.39
C      24.83       2.90      37.01
C      23.74       2.87      37.90
C      26.35       4.15      35.50
C      26.52       3.18      34.48
C       2.20       3.36      33.46
C       3.01       4.52      33.41
C      28.19       5.43      34.49
C      27.25       5.25      35.52
C      23.01       4.29      45.12
C      23.50       5.52      45.63
C      24.61       5.54      46.49
C      25.28       4.34      46.84
C      24.76       3.11      46.35
C      23.65       3.09      45.50
C      26.41       4.33      47.70
C      26.36       4.95      48.97
C      27.34       4.69      49.94
C       3.14       3.80      49.67
C       3.26       3.29      48.35
C       2.28       3.55      47.38
C      16.03       3.91      45.12
C      15.54       2.68      45.63
C      14.42       2.66      46.49
C      13.76       3.86      46.84
C      14.27       5.08      46.34
C      15.39       5.11      45.49
C      12.62       3.87      47.70
C      11.49       4.64      47.38
C      10.50       4.91      48.35
C      10.62       4.40      49.67
C      11.69       3.51      49.94
C      12.68       3.25      48.97
C      16.02       4.15      38.18
C      15.64       2.94      37.56
C      15.30       5.33      37.90
C      14.21       5.30      37.01
C      13.80       4.09      36.39
C      14.56       2.92      36.67
C      12.69       4.04      35.49
C      11.80       2.94      35.52
C      10.86       2.75      34.49
C      10.76       3.66      33.41
C      11.57       4.83      33.46
C      12.52       5.01      34.48
C       9.30       7.06      51.76
C       9.91       5.00      50.73
C       9.33       5.04      53.04
C       9.17       6.45      53.03
C       8.25       0.52      10.13
C       6.16       1.02       9.10
C       6.48       1.51      11.41
C       7.78       0.94      11.40
C       3.11       4.71      30.95
C       4.59       6.26      29.92
C       4.85       5.74      32.23
C       3.71       4.90      32.22
C       4.46       1.14      51.76
C       3.86       3.20      50.73
C       4.44       3.16      53.04
C       4.59       1.75      53.03
C       5.53       7.67      10.13
C       7.62       7.17       9.10
C       7.30       6.68      11.41
C       6.00       7.25      11.40
C      10.66       3.48      30.95
C       9.17       1.92      29.92
C       8.92       2.44      32.23
C      10.06       3.28      32.21
C      13.57      15.63      29.26
C      12.84      14.46      29.26
C      12.62      14.08      30.59
C      13.79      16.01      30.59
C      14.48      17.18      31.00
C      14.64      17.59      32.35
C      14.55      17.64      34.59
C      15.16      18.82      34.15
C      15.23      18.79      32.78
C      14.31      17.27      35.94
C      13.70      16.06      36.35
C      12.71      14.03      36.35
C      12.91      14.42      37.68
C      13.51      15.66      37.68
C      12.11      12.81      35.94
C      11.87      12.44      34.59
C      11.77      12.49      32.35
C      11.19      11.30      32.78
C      11.25      11.26      34.16
C      11.93      12.91      31.00
C      11.42      12.04      30.00
C      12.27      11.11      29.37
C      11.75      10.15      28.48
C      10.36      10.09      28.21
C       9.51      11.04      28.83
C      10.03      12.00      29.72
C       9.84       9.10      27.31
C       8.92       9.44      26.29
C       8.59       8.52      25.27
C       9.19       7.24      25.22
C      10.03       6.87      26.30
C      10.34       7.78      27.33
C      11.63      11.92      36.94
C      12.45      10.89      37.44
C      11.91       9.91      38.31
C      10.53       9.93      38.66
C       9.73      10.99      38.16
C      10.27      11.97      37.31
C       9.96       8.96      39.52
C      10.52       8.70      40.79
C       9.80       7.97      41.76
C       8.50       7.49      41.48
C       8.00       7.64      40.17
C       8.72       8.36      39.20
C      14.79      18.16      36.93
C      13.97      19.20      37.44
C      14.51      20.17      38.31
C      15.88      20.15      38.65
C      16.69      19.09      38.16
C      16.15      18.11      37.31
C      16.46      21.13      39.52
C      17.70      21.72      39.20
C       5.78       0.55      40.17
C       5.28       0.70      41.48
C       3.98       0.22      41.76
C      15.90      21.38      40.79
C      15.00      18.05      30.00
C      14.14      18.98      29.37
C      16.38      18.08      29.71
C      16.90      19.04      28.82
C      16.06      20.00      28.21
C      14.67      19.93      28.48
C      16.57      20.98      27.31
C       3.43       0.42      27.33
C       3.74       1.33      26.31
C       4.58       0.96      25.23
C      17.81      21.56      25.27
C      17.49      20.65      26.29
C      26.17      14.43      50.08
C      25.52      15.65      50.08
C      25.30      16.03      51.40
C      26.38      14.05      51.40
C      27.05      12.86      51.82
C      27.33      12.52      53.17
C      27.42      12.58      55.40
C      28.13      11.45      54.97
C      28.07      11.42      53.59
C      27.22      12.97      56.75
C      26.47      14.10      57.17
C      25.21      15.97      57.17
C      25.45      15.61      58.50
C      26.23      14.46      58.50
C      24.46      17.10      56.75
C      24.26      17.49      55.40
C      24.35      17.55      53.17
C      23.61      18.66      53.60
C      23.55      18.62      54.97
C      24.63      17.21      51.82
C      24.14      18.09      50.82
C      22.90      17.82      50.19
C      22.34      18.75      49.30
C      22.98      19.99      49.03
C      24.23      20.24      49.64
C      24.80      19.31      50.53
C      22.38      20.92      48.13
C      23.14      21.56      47.11
C       9.87       0.41      46.09
C       8.46       0.53      46.04
C      20.35      21.88      47.12
C      20.98      21.15      48.15
C      23.93      17.96      57.75
C      22.62      17.78      58.26
C      22.05      18.73      59.12
C      22.75      19.91      59.47
C      24.07      20.07      58.98
C      24.65      19.11      58.13
C      22.19      20.89      60.33
C      21.69      20.53      61.60
C      21.42      21.52       0.13
C       9.02       1.00      62.30
C       9.40       1.36      60.98
C       9.66       0.38      60.02
C      27.75      12.11      57.75
C      29.06      12.30      58.26
C      29.63      11.34      59.12
C      28.92      10.16      59.47
C      27.61      10.00      58.98
C      27.03      10.95      58.13
C      29.48       9.18      60.33
C      29.38       7.81      60.02
C       4.37       6.82      60.98
C       4.75       7.18      62.30
C       4.98       8.55       0.13
C      29.99       9.54      61.61
C      27.55      11.98      50.82
C      28.78      12.26      50.19
C      26.89      10.77      50.53
C      27.46       9.84      49.64
C      28.71      10.09      49.02
C      29.35      11.33      49.30
C      29.31       9.16      48.12
C       5.43       8.93      48.15
C       6.06       8.20      47.12
C       5.32       7.66      46.04
C      29.19       7.79      46.09
C      28.55       8.52      47.11
C      18.83       4.12       8.44
C      20.21       4.07       8.44
C      20.65       4.07       9.77
C      18.39       4.13       9.77
C      17.03       4.14      10.19
C      16.59       4.07      11.54
C      16.60       3.96      13.77
C      15.27       3.91      13.34
C      15.27       3.98      11.96
C      17.04       3.93      15.12
C      18.39       4.02      15.54
C      20.64       4.18      15.54
C      20.21       4.15      16.87
C      18.83       4.05      16.87
C      22.00       4.26      15.12
C      22.44       4.24      13.77
C      22.44       4.13      11.54
C      23.77       4.22      11.97
C      23.77       4.29      13.34
C      22.01       4.06      10.19
C      23.02       4.05       9.19
C      23.40       5.25       8.56
C      24.49       5.27       7.67
C      25.24       4.10       7.39
C      24.83       2.90       8.01
C      23.74       2.87       8.90
C      26.35       4.15       6.50
C      26.52       3.18       5.48
C       2.20       3.36       4.46
C       3.01       4.52       4.41
C      28.19       5.43       5.49
C      27.25       5.25       6.52
C      23.01       4.29      16.12
C      23.50       5.52      16.63
C      24.61       5.54      17.49
C      25.28       4.34      17.84
C      24.76       3.11      17.35
C      23.65       3.09      16.50
C      26.41       4.33      18.70
C      26.35       4.95      19.97
C      27.34       4.69      20.94
C       3.14       3.80      20.67
C       3.26       3.29      19.35
C       2.27       3.55      18.38
C      16.03       3.91      16.12
C      15.54       2.68      16.63
C      14.42       2.66      17.49
C      13.76       3.86      17.84
C      14.27       5.08      17.34
C      15.39       5.11      16.49
C      12.62       3.87      18.70
C      11.48       4.64      18.38
C      10.50       4.91      19.35
C      10.62       4.40      20.67
C      11.69       3.51      20.94
C      12.68       3.25      19.97
C      16.02       4.15       9.18
C      15.64       2.94       8.56
C      15.30       5.33       8.90
C      14.21       5.30       8.01
C      13.80       4.09       7.39
C      14.56       2.92       7.67
C      12.69       4.04       6.49
C      11.80       2.94       6.52
C      10.86       2.75       5.49
C      10.76       3.66       4.41
C      11.57       4.83       4.46
C      12.52       5.01       5.48
C       9.30       7.06      22.76
C       9.91       5.00      21.73
C       9.33       5.04      24.04
C       9.17       6.45      24.03
C       8.25       0.52      43.58
C       6.16       1.02      42.55
C       6.48       1.51      44.86
C       7.78       0.94      44.85
C       3.11       4.71       1.95
C       4.59       6.26       0.92
C       4.85       5.74       3.23
C       3.70       4.90       3.22
C       4.46       1.14      22.76
C       3.85       3.20      21.73
C       4.44       3.16      24.04
C       4.59       1.75      24.03
C       5.53       7.67      43.58
C       7.62       7.17      42.55
C       7.30       6.68      44.86
C       6.00       7.25      44.85
C      10.65       3.48       1.95
C       9.17       1.92       0.92
C       8.92       2.44       3.23
C      10.06       3.28       3.21
H      18.42      21.25      53.52
H      17.86      19.69      55.22
H       3.24       2.22      55.31
H       2.77       0.71      57.05
H      14.01      20.58      57.03
H      13.14      18.98      58.57
H      17.91      19.07      57.67
H      17.02      17.43      59.18
H      13.87      16.12      57.42
H      12.54      13.96      57.42
H      13.21      15.04      61.30
H      13.21      15.04       1.20
H      15.62      19.53      61.20
H      15.52      19.59       1.28
H      12.99      19.27       3.71
H      13.91      20.93       5.19
H      16.76      17.38       3.49
H      17.67      19.02       4.97
H      13.76      16.18       5.08
H      12.65      13.90       5.08
H      10.79      10.55      61.20
H      10.90      10.50       1.29
H      13.43      10.81       3.71
H      12.51       9.16       5.19
H       9.65      12.70       3.49
H       8.74      11.06       4.97
H       8.28       8.53       4.84
H       7.05       7.33       6.49
H      10.18       7.94       9.26
H      11.40       9.15       7.62
H       9.39      12.65      59.18
H       8.50      11.02      57.67
H      11.01       7.48      57.05
H      10.53       5.98      55.30
H       7.98       8.84      53.52
H       8.55      10.39      55.22
H      12.40       9.51      57.03
H      13.27      11.10      58.57
H      18.14      21.55       4.84
H       6.73       0.86       6.49
H      15.02      20.93       7.62
H       3.60       0.25       9.26
H      28.61       7.42      11.89
H      27.54       8.68      13.59
H       7.08       8.19      13.67
H       6.01       9.35      15.42
H      30.23      11.57      15.40
H      29.29      13.12      16.94
H      26.97       8.95      16.03
H      26.01      10.54      17.55
H      26.45      13.92      15.78
H      25.24      16.16      15.79
H      25.84      15.04      19.67
H      25.84      15.03      22.01
H      28.52      10.70      19.57
H      28.62      10.76      22.10
H      29.61      13.11      24.53
H      30.59      11.49      26.01
H      26.09      10.79      24.31
H      27.05       9.18      25.78
H      26.55      13.98      25.89
H      25.13      16.09      25.89
H      23.16      19.37      19.57
H      23.06      19.31      22.10
H      22.07      16.96      24.53
H      21.09      18.58      26.01
H      25.59      19.28      24.31
H      24.63      20.89      25.78
H      10.02       0.67      25.66
H       9.60       2.34      27.30
H      21.20      21.21      30.08
H      21.65      19.55      28.44
H      25.68      19.54      17.55
H      24.71      21.13      16.04
H      20.40      20.72      15.42
H       6.69       0.00      13.67
H      10.45       0.78      11.89
H      24.15      21.40      13.60
H      21.45      18.51      15.40
H      22.40      16.95      16.94
H      29.02       7.51      25.66
H       4.17       5.84      27.30
H      30.03      10.52      28.44
H       5.20       8.86      30.08
H      11.53       5.51      32.70
H      13.16       5.80      34.41
H      10.33       1.88      34.49
H      11.88       2.22      36.24
H      14.33       2.03      36.22
H      16.14       2.07      37.76
H      13.68       6.16      36.85
H      15.54       6.21      38.36
H      18.25       4.13      36.60
H      20.79       4.06      36.60
H      19.52       4.11      40.48
H      19.52       4.10      42.83
H      14.43       3.95      40.38
H      14.43       3.83      42.92
H      15.97       1.80      45.34
H      14.08       1.76      46.82
H      15.71       6.01      45.12
H      13.84       5.98      46.60
H      18.25       4.01      46.71
H      20.79       4.19      46.71
H      24.61       4.25      40.39
H      24.61       4.37      42.92
H      23.07       6.40      45.34
H      24.97       6.44      46.82
H      23.32       2.19      45.13
H      25.20       2.22      46.60
H       2.35       3.09      46.48
H       4.00       2.62      48.12
H      27.19       5.03      50.89
H      25.53       5.48      49.25
H      23.50       1.99      38.37
H      25.36       2.03      36.86
H      27.17       5.97      36.24
H      28.71       6.31      34.49
H       2.23       2.67      32.71
H      25.88       2.39      34.41
H      24.72       6.16      36.22
H      22.90       6.12      37.76
H      11.41       5.11      46.47
H       9.76       5.57      48.12
H      13.51       2.72      49.25
H      11.85       3.17      50.89
H       9.27       8.08      51.65
H       9.26       4.51      53.91
H       9.14       0.04      10.02
H       6.05       1.83      12.28
H      27.52       4.17      30.84
H       5.34       5.95      33.10
H       4.49       0.12      51.65
H       4.51       3.69      53.91
H      29.91       8.15      10.02
H       7.72       6.36      12.28
H      11.52       4.02      30.84
H       8.43       2.23      33.10
H      18.42      21.25      24.52
H      17.86      19.69      26.22
H       3.24       2.22      26.31
H       2.77       0.71      28.05
H      14.01      20.58      28.03
H      13.14      18.98      29.57
H      17.91      19.07      28.67
H      17.02      17.43      30.18
H      13.87      16.12      28.42
H      12.54      13.96      28.42
H      13.21      15.04      32.30
H      13.21      15.04      34.64
H      15.62      19.53      32.20
H      15.52      19.59      34.73
H      12.99      19.27      37.16
H      13.91      20.93      38.64
H      16.76      17.38      36.94
H      17.67      19.02      38.41
H      13.76      16.18      38.52
H      12.65      13.90      38.52
H      10.79      10.55      32.20
H      10.90      10.50      34.73
H      13.43      10.81      37.16
H      12.51       9.16      38.64
H       9.65      12.70      36.94
H       8.74      11.06      38.41
H       8.28       8.53      38.29
H       7.05       7.33      39.94
H      10.18       7.94      42.71
H      11.40       9.15      41.07
H       9.39      12.65      30.18
H       8.50      11.02      28.67
H      11.01       7.48      28.05
H      10.53       5.98      26.30
H       7.98       8.84      24.52
H       8.55      10.39      26.22
H      12.40       9.51      28.03
H      13.27      11.10      29.57
H      18.14      21.55      38.29
H       6.73       0.86      39.94
H      15.02      20.93      41.07
H       3.60       0.25      42.71
H      28.61       7.42      45.33
H      27.54       8.68      47.04
H       7.08       8.19      47.12
H       6.01       9.35      48.87
H      30.23      11.57      48.85
H      29.29      13.12      50.39
H      26.97       8.95      49.48
H      26.01      10.54      50.99
H      26.45      13.92      49.23
H      25.24      16.16      49.23
H      25.84      15.04      53.11
H      25.84      15.03      55.46
H      28.52      10.70      53.02
H      28.62      10.76      55.55
H      29.61      13.11      57.98
H      30.59      11.49      59.46
H      26.09      10.79      57.75
H      27.05       9.18      59.23
H      26.55      13.98      59.34
H      25.13      16.09      59.34
H      23.16      19.37      53.02
H      23.06      19.31      55.55
H      22.07      16.96      57.98
H      21.09      18.58      59.46
H      25.59      19.28      57.75
H      24.63      20.89      59.23
H      10.03       0.67      59.11
H       9.60       2.34      60.75
H      21.20      21.21       1.08
H      21.65      19.55      61.89
H      25.68      19.54      51.00
H      24.71      21.13      49.49
H      20.40      20.72      48.87
H       6.69       0.00      47.12
H      10.45       0.78      45.34
H      24.15      21.40      47.04
H      21.45      18.51      48.85
H      22.40      16.95      50.39
H      29.02       7.51      59.11
H       4.17       5.84      60.75
H      30.03      10.52      61.89
H       5.20       8.86       1.08
H      11.53       5.51       3.70
H      13.16       5.80       5.41
H      10.33       1.88       5.49
H      11.88       2.22       7.24
H      14.33       2.03       7.22
H      16.14       2.07       8.76
H      13.68       6.16       7.85
H      15.54       6.21       9.36
H      18.25       4.13       7.60
H      20.79       4.06       7.60
H      19.52       4.11      11.48
H      19.52       4.10      13.83
H      14.43       3.95      11.38
H      14.43       3.83      13.92
H      15.97       1.80      16.34
H      14.07       1.76      17.82
H      15.71       6.01      16.12
H      13.84       5.98      17.60
H      18.25       4.01      17.71
H      20.79       4.19      17.71
H      24.61       4.25      11.39
H      24.61       4.37      13.92
H      23.07       6.40      16.34
H      24.97       6.44      17.82
H      23.32       2.19      16.13
H      25.20       2.22      17.60
H       2.35       3.09      17.48
H       4.00       2.62      19.12
H      27.19       5.03      21.89
H      25.53       5.48      20.25
H      23.50       1.99       9.37
H      25.36       2.03       7.86
H      27.17       5.97       7.24
H      28.71       6.31       5.49
H       2.23       2.67       3.71
H      25.88       2.39       5.41
H      24.72       6.16       7.22
H      22.90       6.12       8.76
H      11.41       5.11      17.47
H       9.76       5.57      19.12
H      13.51       2.72      20.25
H      11.85       3.17      21.89
H       9.27       8.08      22.65
H       9.26       4.51      24.91
H       9.14       0.04      43.47
H       6.05       1.83      45.73
H      27.52       4.17       1.84
H       5.34       5.95       4.10
H       4.49       0.12      22.65
H       4.51       3.69      24.91
H      29.91       8.15      43.47
H       7.72       6.36      45.73
H      11.52       4.02       1.84
H       8.43       2.23       4.10
N      13.21      15.04      60.34
N      14.25      16.94       0.02
N      13.21      15.04       2.15
N      12.17      13.14       0.02
N      25.84      15.04      18.71
N      26.97      13.18      20.84
N      25.84      15.03      22.97
N      24.71      16.89      20.84
N      19.52       4.10      39.52
N      17.35       4.05      41.65
N      19.52       4.10      43.79
N      21.69       4.15      41.65
N       9.69       6.34      50.69
N       9.73       4.37      51.93
N       7.43       0.54       9.06
N       5.70       1.49      10.30
N       3.54       5.40      29.87
N       5.22       6.42      31.11
N       4.07       1.86      50.69
N       4.04       3.82      51.93
N       6.35       7.65       9.05
N       8.07       6.70      10.30
N      10.23       2.78      29.87
N       8.54       1.76      31.11
N      13.21      15.04      31.34
N      14.25      16.94      33.47
N      13.21      15.04      35.60
N      12.17      13.14      33.47
N      25.84      15.04      52.15
N      26.97      13.18      54.28
N      25.84      15.03      56.42
N      24.71      16.89      54.28
N      19.52       4.10      10.52
N      17.35       4.05      12.65
N      19.52       4.10      14.79
N      21.69       4.15      12.65
N       9.69       6.34      21.69
N       9.73       4.37      22.93
N       7.43       0.54      42.50
N       5.71       1.49      43.74
N       3.54       5.40       0.87
N       5.22       6.42       2.11
N       4.07       1.86      21.69
N       4.04       3.82      22.93
N       6.35       7.65      42.50
N       8.07       6.70      43.74
N      10.23       2.78       0.87
N       8.54       1.76       2.11
