20

Cu      -1.81       2.06      18.72
Cu      -0.50       4.44      18.71
O      -2.12       4.77      20.29
C      -2.95       3.87      20.57
O      -2.78       3.31      17.08
C       0.62       2.62      20.59
O       0.51       3.15      17.14
O      -3.04       2.70      20.05
O      -0.21       1.72      20.29
C       0.66       7.35      18.50
C      -4.31       0.80      17.58
C       0.30       1.92      16.91
C       2.00       5.69      17.56
C      -2.60       4.55      16.88
C      -2.96      -0.87      18.50
N       0.92       6.04      18.29
N      -3.23       0.45      18.31
O      -1.71       5.29      17.44
O       0.70       3.81      20.09
O      -0.61       1.19      17.44
