21

O      13.16       5.47      18.28
O      13.57       3.25      18.06
Mg      11.69       5.79      19.64
O      10.00       6.29      20.66
Mg      11.71       3.56      22.15
O      10.19       4.81      22.37
O      10.44       2.00      22.00
Mg      12.01       2.38      19.01
O      10.66       1.17      19.89
O      10.73       4.11      18.98
O      10.71       2.58      17.36
C      13.85       4.48      17.87
C       9.60       5.76      21.75
O      12.86       7.25      20.62
O      12.79       5.16      21.36
C      10.10       1.24      21.04
C      10.24       3.65      17.85
O      13.38       2.58      22.94
O      13.00       2.48      20.77
C      13.27       6.37      21.44
C      13.71       2.15      21.79
