21

C       5.04       5.36       1.12
O       5.15       9.16       2.62
O       4.77       9.25       0.44
Mg       3.47       5.94      -0.68
Mg       3.79       9.36      -1.32
Mg       3.49       8.17       1.83
C       5.49       9.59       1.47
O       4.94       6.26      -2.04
O       5.34       8.49      -2.26
O       1.96       6.93       2.05
O       1.78       5.44       0.34
O       2.22       9.73       1.68
O       2.44      10.56      -0.43
C       5.62       7.25      -2.45
C       1.38       5.97       1.43
C       2.01       8.09      -2.47
C       1.88      10.49       0.71
O       2.50       7.63      -1.35
O       2.49       9.15      -2.96
O       4.64       4.48       0.30
O       4.56       6.58       1.04
