17

Tb      11.60      12.94      15.54
O      13.55      11.75      16.39
O      11.90      13.51      17.86
O      10.86      10.90      16.55
C       9.74      10.60      17.07
C      11.99      13.43      12.41
C      14.50      12.45      16.85
O      12.12      11.45      13.74
C      11.08      14.05      18.67
C      14.51      13.93      16.46
C       9.59      15.76      16.24
O       9.49      12.49      14.60
O      10.49      14.96      15.86
C       8.24      12.32      14.64
O      13.59      14.36      15.72
O      11.85      14.11      13.47
C      12.00      11.90      12.56
