96

H       5.62      24.24      12.42
H       5.13      22.73      11.63
H       5.87      22.69      13.24
H       0.98      20.30      13.05
H       1.64      18.67      13.28
H       0.26      16.82      13.58
H      -3.81      17.22      14.88
H      -0.75      21.17      12.32
H      -0.95      22.67      13.24
H      -3.41      22.40      13.20
H      -3.26      20.83      12.41
H      -2.37      23.50      11.14
H      -3.83      22.59      10.70
H      -2.23      21.91      10.37
H      -4.05      20.79      14.61
H      -4.76      19.31      15.28
H      -3.24      18.41      17.43
H      -2.41      19.19      19.64
H      -1.98      21.60      20.02
H      -5.11      23.41      17.22
H      -5.71      22.36      15.93
H      -4.51      25.16      15.55
H      -5.09      24.13      14.25
H      -7.43      24.16      15.28
H      -6.87      25.80      14.89
H      -6.83      25.22      16.57
H      -2.95      24.09      19.14
H      -2.66      24.23      17.39
C       1.32      24.48      21.60
C       0.89      24.18      20.22
C      -0.47      24.11      19.90
C      -0.90      23.87      18.60
C       0.07      23.71      17.59
C      -0.12      24.66      15.42
C      -1.27      25.66      15.51
C      -1.07      26.86      14.57
C       1.45      23.65      17.91
C       1.84      23.91      19.22
C       2.44      23.14      16.88
C       2.18      21.66      16.61
C       2.18      20.74      17.66
C       1.89      19.39      17.43
C       1.54      18.97      16.15
C       1.51      19.87      15.08
C       1.89      21.20      15.31
C       3.23      21.99      13.54
C       3.79      23.37      13.24
C       5.18      23.26      12.59
C       0.98      19.43      13.72
C      -0.40      18.84      13.89
C      -0.57      17.46      13.85
C      -1.80      16.87      14.19
C      -1.96      15.41      14.08
C      -2.87      17.68      14.60
C      -2.73      19.07      14.65
C      -1.51      19.65      14.25
C      -1.39      21.69      13.04
C      -2.81      21.83      12.48
C      -2.81      22.49      11.10
C      -3.84      19.92      15.24
C      -3.44      20.39      16.62
C      -3.12      19.47      17.63
C      -2.63      19.91      18.86
C      -2.40      21.27      19.08
C      -2.70      22.21      18.09
C      -3.26      21.76      16.88
C      -5.00      23.16      16.16
C      -5.25      24.39      15.30
C      -6.67      24.92      15.52
C      -2.38      23.68      18.30
H       3.10      23.92      12.58
H      -1.36      26.01      16.55
H      -0.92      26.55      13.53
H       3.46      23.28      17.28
H       2.38      23.68      15.94
O      -0.93      14.67      13.84
H       2.39      21.09      18.67
H       1.92      18.68      18.25
H      -1.21      24.27      20.68
H      -0.03      24.23      14.41
H       0.84      25.14      15.67
O       2.56      24.47      21.90
O      -0.34      23.52      16.29
H      -0.21      27.47      14.87
H      -1.95      27.52      14.59
O       1.97      22.10      14.25
H       2.90      23.90      19.49
O      -3.65      22.69      15.92
O      -1.36      21.02      14.32
O       0.44      24.74      22.51
H      -2.20      25.13      15.27
H       1.26      17.93      15.97
H       3.08      21.41      12.62
H       3.94      21.43      14.16
H       3.85      23.94      14.18
O      -3.13      14.89      14.16
