138

Mn      -1.68       9.82      18.10
Mn       0.99       8.89       8.86
Mn       9.13       2.65       0.38
Mn       6.47       3.59       9.61
Mn      -2.21       6.24       0.00
Mn       5.94       0.00       9.24
H       0.24       1.66      15.81
H       0.96       5.59      15.86
H       2.62       5.34      14.32
H       3.92       3.87      12.78
H      -1.11      12.41      12.83
H       1.68       0.16      14.40
H       4.47       7.29      16.17
H       2.41       8.29      16.07
H       1.31       6.52       1.03
H       3.49       4.58       6.58
H       2.77       0.65       6.62
H       1.10       0.90       5.08
H      -0.19       2.36       3.54
H       0.42       6.30       3.59
H       2.04       6.07       5.17
H       6.71      11.42       6.94
H      -3.10      10.42       6.84
H      -2.01      12.19      10.26
H       7.22      10.81       2.66
H       6.50       6.89       2.62
H       4.83       7.14       4.16
H       3.53       8.60       5.69
H       8.56       0.07       5.64
H       5.77      12.31       4.07
H       2.99       5.18       2.30
H       5.04       4.19       2.40
H       6.14       5.95      17.45
H       3.96       7.90      11.90
H       4.68      11.82      11.85
H       6.35      11.57      13.40
H       7.65      10.11      14.93
H       7.04       6.17      14.88
H       5.41       6.40      13.31
H       0.74       1.06      11.54
H      10.56       2.05      11.64
H       9.46       0.29       8.21
C       0.72       2.39      15.50
C       0.42       3.64      15.97
C       1.15       4.74      15.52
C       2.15       4.59      14.61
C       3.46       3.14      13.10
C       3.75       1.90      12.62
C       3.09       0.78      13.14
C       2.12       0.92      14.08
C       1.76       2.20      14.56
C       2.46       3.32      14.09
C      -0.68       3.85      16.97
C       4.77       1.78      11.51
C       3.85       7.16      16.86
C       2.62       7.73      16.79
C       1.66       7.51      17.80
C       1.96       6.70       0.38
C       3.25       6.12       0.50
C       0.36       8.25      17.76
C       3.01       3.85       6.27
C       3.30       2.60       6.73
C       2.57       1.49       6.29
C       1.58       1.64       5.37
C       0.27       3.10       3.87
C      -0.02       4.33       3.38
C       0.64       5.46       3.90
C       1.61       5.32       4.84
C       1.97       4.04       5.32
C       1.27       2.91       4.85
C       4.41       2.39       7.73
C      -1.04       4.46       2.27
C       7.33      11.55       7.62
C      -3.32      10.98       7.55
C      -2.35      11.20       8.56
C      -2.65      12.01       9.62
C       0.48       0.12       9.74
C      -1.05      10.46       8.52
C       6.73      10.08       2.97
C       7.03       8.84       2.51
C       6.30       7.73       2.95
C       5.31       7.88       3.87
C       4.00       9.34       5.37
C       3.70      10.57       5.85
C       4.37      11.69       5.34
C       5.34      11.55       4.40
C       5.70      10.28       3.91
C       5.00       9.15       4.39
C       8.14       8.62       1.51
C       2.68      10.70       6.96
C       3.60       5.31       1.61
C       4.83       4.74       1.68
C       5.79       4.97       0.68
C       5.49       5.78      18.10
C       4.21       6.36      17.97
C       7.09       4.22       0.72
C       4.45       8.63      12.21
C       4.15       9.87      11.74
C       4.88      10.98      12.19
C       5.87      10.83      13.11
C       7.18       9.37      14.61
C       7.48       8.14      15.09
C       6.81       7.02      14.58
C       5.84       7.16      13.64
C       5.48       8.43      13.15
C       6.18       9.56      13.62
C       3.04      10.09      10.74
C       8.50       8.01      16.20
C       0.13       0.92      10.85
C      10.77       1.50      10.92
C       9.81       1.27       9.91
C      10.11       0.46       8.86
C       6.97      12.36       8.73
C       8.51       2.02       9.95
O      -0.94       5.01      17.28
O      10.61       2.83      17.39
O       4.96       0.65      11.04
O       5.32       2.83      11.17
O      -0.61       7.84      18.46
O       0.30       9.31      17.11
O       4.67       1.22       8.05
O       4.99       3.41       8.15
O      -1.24       5.59       1.81
O      10.28       3.41       1.93
O      -0.08      10.87       9.22
O      -0.99       9.40       7.87
O       8.40       7.46       1.19
O      -3.16       9.65       1.09
O       2.49      11.83       7.43
O       2.13       9.65       7.31
O       8.07       4.63       0.02
O       7.16       3.16       1.37
O       2.78      11.25      10.43
O       2.46       9.06      10.32
O       8.69       6.88      16.67
O      -2.82       9.07      16.54
O       7.53       1.61       9.26
O       8.44       3.07      10.60
