16

H      13.00      12.25      14.17
H      13.32      11.22      11.91
H       9.83      13.27      10.48
H       9.59      14.41      12.70
C      11.69      11.46       9.76
C      11.06      14.00      14.92
C      11.28      13.40      13.57
C      12.33      12.50      13.35
C      12.50      11.91      12.10
C      11.60      12.18      11.06
C      10.54      13.09      11.28
C      10.40      13.71      12.51
O      11.56      13.42      15.93
O      10.38      15.09      14.96
O      10.72      11.59       8.91
O      12.67      10.71       9.48
