16

H      11.98       5.13       0.67
H      10.60       9.07      -0.26
C      12.74       8.79      -0.37
C      13.52       6.56       0.15
H      12.97       9.81      -0.67
C      13.80       7.88      -0.22
C      15.22       8.33      -0.45
H      14.35       5.86       0.26
O      16.16       7.52      -0.15
O      15.36       9.52      -0.92
C       9.72       6.60       0.45
C      11.14       7.05       0.22
C      12.21       6.15       0.37
C      11.43       8.38      -0.15
O       8.79       7.42       0.16
O       9.59       5.42       0.92
