28

C       2.72      11.73       0.51
C      -0.68       7.95       0.34
C       3.18       9.76       2.00
C       2.40      10.23       0.76
C       2.75       9.33      -0.44
C       1.77       8.14      -0.43
C       0.74       8.42       0.68
C       0.86       9.96       0.95
C       0.34      10.31       2.34
C       0.07      10.72      -0.10
H       2.93      10.35       2.88
H       4.26       9.86       1.81
H       2.96       8.71       2.19
H       2.70       9.87      -1.39
H       3.78       8.98      -0.33
H       2.27       7.19      -0.24
H       1.27       8.05      -1.40
H       1.03       7.91       1.61
H       0.46      11.38       2.53
H       0.87       9.76       3.13
H      -0.71      10.04       2.40
H       0.16      11.79       0.09
H      -0.98      10.44      -0.05
H       0.43      10.53      -1.12
O       2.93      12.45       1.54
O       2.79      12.16      -0.70
O      -1.02       7.74      -0.86
O      -1.45       7.76       1.37
