28

C       1.01       0.87       0.41
C      -2.41       4.65       0.45
C      -1.04       0.40       1.70
C      -0.46       1.31       0.61
C      -1.31       1.22      -0.67
C      -2.42       2.29      -0.54
C      -2.08       3.16       0.68
C      -0.59       2.84       1.01
C      -0.30       3.12       2.48
C       0.34       3.65       0.13
H      -0.98      -0.65       1.39
H      -2.10       0.65       1.85
H      -0.51       0.53       2.65
H      -0.71       1.40      -1.57
H      -1.74       0.23      -0.78
H      -3.41       1.85      -0.40
H      -2.46       2.91      -1.44
H      -2.66       2.85       1.56
H      -0.41       4.20       2.66
H       0.72       2.81       2.75
H      -1.00       2.60       3.15
H       0.27       4.71       0.38
H       0.11       3.53      -0.94
H       1.36       3.31       0.29
O       1.38       0.46      -0.75
O       1.75       0.87       1.44
O      -2.85       5.32       1.46
O      -2.26       5.14      -0.71
