28

C       3.82       2.48       9.86
C       7.25       6.24       9.67
C       3.39       4.44      11.37
C       4.17       3.96      10.14
H       3.61       3.87      12.28
H       2.32       4.35      11.17
H       3.60       5.50      11.56
C       3.81       4.84       8.92
C       5.72       4.23      10.30
H       3.88       4.26       7.99
H       2.78       5.19       9.02
C       4.80       6.03       8.90
H       4.29       6.97       9.09
H       5.28       6.10       7.92
C       5.83       5.76      10.01
C       6.24       3.88      11.68
C       6.49       3.46       9.23
H       5.55       6.28      10.93
H       6.13       2.81      11.87
H       5.72       4.42      12.47
H       7.30       4.15      11.74
H       6.41       2.38       9.41
H       7.54       3.75       9.28
H       6.13       3.66       8.22
O       3.54       1.75      10.88
O       3.80       2.06       8.66
O       7.59       6.47       8.48
O       8.02       6.43      10.70
