28

O       9.42       8.88      10.81
O       8.86       9.05       8.64
H       5.21      10.88       9.61
C       5.57      13.34       9.76
C       8.98       9.54       9.80
C       7.62      13.78      11.06
C       7.03      12.86       9.99
C       7.86      12.96       8.69
C       8.97      11.90       8.79
C       8.65      11.03      10.03
C       7.16      11.34      10.37
C       6.87      11.04      11.83
C       6.23      10.54       9.46
H       6.30       9.47       9.70
H       6.48      10.66       8.40
H       7.55      14.82      10.72
H       8.68      13.54      11.20
H       7.12      13.69      12.03
H       7.23      12.78       7.81
H       8.27      13.97       8.59
H       9.95      12.35       8.93
H       9.00      11.29       7.88
H       9.24      11.34      10.90
H       6.98       9.97      12.02
H       5.86      11.36      12.09
H       7.57      11.57      12.49
O       5.23      13.72       8.60
O       4.80      13.37      10.79
