12

Cu       3.25       8.13       9.58
C       3.28      10.23       7.77
C       5.37       6.57      10.88
N       3.82       6.91       8.04
N       2.67       9.50      10.98
O       2.48       9.26       8.09
C       3.07       5.86       7.63
O       4.28       7.22      11.08
O       1.58       6.69       9.88
C       4.92       7.24       7.34
C       1.54      10.21      10.78
C       3.36       9.68      12.14
