70

O       2.29       5.84       7.41
O       3.91       7.18       6.66
O       5.71       6.26      -5.91
O       7.17       4.60      -6.31
O       5.64      -5.83       7.41
O       3.97      -7.13       6.72
O       2.22      -6.27      -5.91
O       0.76      -4.62      -6.31
C       4.06       0.73       0.68
C       3.77       1.53       1.80
C       3.92       2.93       1.75
C       4.35       3.52       0.54
C       4.66       2.74      -0.58
C       4.52       1.35      -0.49
C       3.66       3.78       2.93
C       4.47       4.91       3.18
C       4.27       5.69       4.31
C       3.25       5.37       5.24
C       2.42       4.26       4.97
C       2.63       3.48       3.84
C       3.14       6.16       6.45
C       5.09       3.37      -1.85
C       6.09       2.77      -2.64
C       6.48       3.34      -3.85
C       5.87       4.53      -4.30
C       4.86       5.13      -3.51
C       4.49       4.55      -2.30
C       6.27       5.14      -5.57
H       3.42       1.06       2.72
H       4.45       4.60       0.49
H       4.76       0.74      -1.36
H       5.28       5.15       2.50
H       4.92       6.54       4.52
C       3.87      -0.74       0.68
C       4.16      -1.54       1.80
H       1.97       2.64       3.64
C       4.01      -2.94       1.75
C       3.28      -2.75      -0.58
C       3.41      -1.36      -0.49
H       1.61       4.02       5.65
C       3.58      -3.53       0.54
C       4.27      -3.79       2.93
C       4.66      -5.37       5.25
C       3.45      -4.91       3.19
H       6.58       1.87      -2.28
C       4.77      -6.14       6.48
C       5.31      -3.50       3.84
H       3.69       5.01      -1.72
C       1.45      -3.36      -3.85
C       2.84      -3.38      -1.85
C       1.83      -2.79      -2.64
C       5.51      -4.27       4.98
H       4.50      -1.07       2.72
H       3.49      -4.61       0.48
H       3.17      -0.75      -1.36
C       3.46      -4.56      -2.31
H       2.63      -5.14       2.52
H       6.33      -4.04       5.65
H       5.98      -2.66       3.63
H       2.98      -6.53       4.54
H       1.34      -1.88      -2.29
H       4.26      -5.00      -1.73
H       0.66      -2.91      -4.45
H       3.57      -6.03      -3.89
H       7.26       2.89      -4.45
H       4.38       6.03      -3.88
C       3.64      -5.68       4.33
C       2.07      -4.54      -4.30
C       3.08      -5.13      -3.52
C       1.66      -5.16      -5.57
