22

O      -0.91       2.60       6.60
O       0.41       1.35       5.31
O       8.45       4.08       6.79
O       7.88       1.99       6.09
H       2.84       1.71       5.69
H       0.30       3.44       8.69
H       2.27       4.44       9.82
H       4.72       5.01       9.76
H       6.95       4.75       8.68
H       5.31       1.97       5.85
C       2.72       2.30       6.59
C       1.45       2.57       7.08
C       1.30       3.31       8.29
C       2.40       3.85       8.91
C       4.84       4.36       8.90
C       6.08       4.21       8.31
C       6.26       3.31       7.22
C       5.17       2.64       6.69
C       3.87       2.85       7.21
C       3.70       3.69       8.37
C       0.27       2.16       6.30
C       7.62       3.11       6.66
