22

H       5.63       7.84       7.76
H       8.17       6.10       4.76
H       6.21       5.11       3.62
H       3.76       4.53       3.69
H       1.53       4.79       4.77
H       3.16       7.57       7.59
C       5.75       7.24       6.86
C       7.03       6.97       6.37
C       7.18       6.24       5.16
C       6.08       5.69       4.53
C       3.64       5.18       4.55
C       2.40       5.33       5.13
C       2.21       6.22       6.22
C       3.30       6.90       6.75
C       4.61       6.69       6.23
C       4.77       5.85       5.08
C       8.20       7.39       7.14
C       0.85       6.43       6.78
O       9.39       6.95       6.84
O       8.07       8.19       8.14
O       0.02       5.46       6.65
O       0.59       7.55       7.36
