22

O       0.08       2.02       0.07
O       0.42       2.52       2.26
O       1.66       9.78      -3.84
O       1.10       7.80      -4.79
H       0.39       4.07      -1.43
H       1.33       4.62       2.72
H       2.16       6.92       2.28
H       2.52       8.78       0.69
H       2.31       9.70      -1.61
H       0.74       5.97      -3.04
C       0.77       4.70      -0.63
C       0.82       4.21       0.67
C       1.32       5.03       1.72
C       1.77       6.30       1.47
C       2.13       8.16      -0.12
C       2.02       8.68      -1.39
C       1.52       7.89      -2.45
C       1.13       6.57      -2.22
C       1.20       6.02      -0.92
C       1.71       6.84       0.16
C       0.40       2.83       1.02
C       1.41       8.53      -3.79
