14

N       6.34      10.75       0.10
N       4.98      10.67       0.31
C       6.68      12.01      -0.05
N       5.54      12.79       0.11
H       7.69      12.33      -0.29
C       4.50      11.89       0.33
H       3.47      12.14       0.50
N       5.49      14.16       0.34
C       6.10      14.84       1.39
C       4.66      15.07      -0.28
H       6.86      14.37       2.01
N       5.69      16.09       1.39
N       4.76      16.23       0.35
H       3.97      14.83      -1.09
