14

N       1.19      17.88       1.73
N       2.53      17.67       1.63
N       2.09      18.28       3.74
N       1.87      16.71       6.98
N       2.79      17.74       7.19
N       2.15      17.83       5.10
H      -0.08      18.61       3.29
H       3.61      19.24       5.87
C       3.07      17.85       2.82
H       0.77      16.16       5.19
C       0.89      18.23       2.99
H       4.12      17.75       3.03
C       1.50      16.77       5.71
C       2.92      18.43       6.07
