14

C      14.25      18.07      15.11
H      11.52      17.06      12.24
N      13.97      18.40      16.37
N      12.63      18.62      16.49
N      13.05      18.02      14.37
N      13.25      19.59      11.13
N      12.34      18.56      10.92
N      12.99      18.47      13.02
C      12.07      18.46      15.30
H      14.36      20.14      12.92
H      15.21      17.68      14.80
H      11.02      18.55      15.10
C      13.62      19.53      12.40
C      12.20      17.88      12.05
