14

C       1.55       3.39      10.40
C       2.93       3.01       8.74
N       1.20       7.35       9.29
N       2.55       7.44       9.48
N       2.09       5.34       8.86
N       1.96       2.14      10.52
N       2.86       1.91       9.47
N       2.15       3.98       9.31
H      -0.07       5.82       8.54
C       3.08       6.25       9.29
H       0.82       3.91      11.01
H       3.61       3.17       7.91
C       0.89       6.10       8.92
H       4.13       6.02       9.36
