46

H       3.24       8.05       2.05
H       3.51      10.18       2.05
H       5.60      10.83       1.04
H       7.76       9.37      -1.84
H       5.11       8.29       4.55
H       6.18       9.17       6.63
H       8.47       8.37       0.29
H       4.44      12.32       1.89
H       6.39      13.69       6.27
H       6.93       7.13      -1.35
H       6.76       6.56       0.32
H       4.60       7.33       0.52
H       4.60       7.51      -1.25
H       6.66       8.23       2.14
H       7.44       9.81       2.00
H       5.79      15.41       4.55
H       5.46       9.58      -2.17
H       5.54      11.04      -1.16
H       4.56      15.55       0.31
H       5.48      14.01       0.44
H       3.72      14.03       0.76
C       4.41       9.61       2.33
C       5.43       9.76       1.18
C       5.80      12.02       5.04
C       7.27       9.74      -0.93
C       4.99      10.20       3.61
C       5.23      11.61       3.79
C       5.31       9.35       4.65
C       5.91       9.85       5.82
C       7.41       8.63       0.15
C       4.92      12.60       2.82
C       5.99      13.40       5.30
C       6.60       7.42      -0.34
C       5.11       7.81      -0.32
C       5.17      13.94       3.09
C       6.79       9.10       1.48
C       5.67      14.35       4.35
C       5.76       9.97      -1.19
C       8.04      10.97      -0.48
C       4.65      14.60       0.85
N       6.16      11.14       6.02
N       4.92       9.28      -0.16
O       4.06       8.24       2.57
O       4.92      14.97       2.22
O       9.32      10.94      -0.61
O       7.43      11.94       0.07
