74

O      -0.13       2.14      20.66
O      10.35      10.15       7.84
O       2.83      -0.70       8.29
O      -1.80       3.10      19.65
O      12.12       9.29       8.79
O       7.24      13.12      19.53
O       9.26      12.22      19.72
H       3.36       6.11      17.21
H       6.89       5.85      11.08
H       4.98       4.30      11.02
H       6.94       8.30      10.52
H       5.23       7.76      17.19
H       8.28       8.86       8.68
H       1.74       3.17      14.08
H       8.47       8.89      14.18
H       3.36       3.76      17.81
H       2.05       3.13      19.56
H       5.80      11.53      18.17
H       9.60      10.40      18.12
H      11.46       8.12      10.96
H       1.07       3.42      11.65
H       5.31       9.91      16.60
H       4.83       2.08      11.63
H      10.19       7.59      12.74
H       0.07       4.43      15.58
H      -1.21       3.78      17.36
H       9.18       8.88      16.52
H       0.50       1.86      10.06
H       4.32       0.55       9.95
C       6.45       6.61      12.94
C       5.84       7.29      15.28
C       3.79       5.42      15.30
C       4.40       4.76      12.92
C       5.66       6.46      14.10
C      10.89       9.38       8.73
C       4.61       5.55      14.14
C       8.08      12.22      19.29
C       2.72       4.46      15.22
C      -0.58       2.86      19.73
C       0.30       3.38      18.64
C       6.30       5.79      11.79
C       3.92       6.21      16.48
C       3.28       3.84      13.04
C       5.16       4.83      11.77
C       7.86       8.28      10.61
C       7.19       9.20      16.36
C       1.87       4.17      16.45
C       2.40       1.09       9.78
C       6.90       8.21      15.20
C       2.97       2.89      11.84
C       6.48      10.99      17.85
C       5.05       7.21      16.46
C       7.72      11.14      18.32
O       0.80       0.07       8.38
C       8.66       8.65       9.50
C       8.40       7.88      11.81
C       2.47       3.74      14.11
C      10.01       8.70       9.68
C       2.01       0.12       8.74
C       7.74       8.31      14.14
C       2.44       3.76      17.71
C       1.65       3.39      18.75
C      -0.28       3.78      17.44
C       8.73      10.31      17.80
C      10.54       8.20      10.89
C       7.51       7.56      13.01
C       1.71       2.83      11.33
C       6.19      10.01      16.89
C       3.96       2.04      11.30
C       9.80       7.85      11.94
C       0.48       4.17      16.37
C       3.67       1.12      10.28
C       8.48       9.39      16.85
C       1.38       1.93      10.35
