31

H       4.14       4.77       5.46
H       3.82       2.22       4.25
H       6.23       1.35       5.45
H       7.65       2.22       3.11
H      10.02       6.92       3.21
H      10.99       5.45       3.29
H      10.47       6.07       1.69
H       9.10       4.09       2.41
H       8.13       5.58       2.13
H       8.08       6.01       4.60
H       9.05       4.54       4.90
C       6.71       4.11       6.83
C       5.71       4.66       3.70
C       7.03       4.19       4.29
C       6.25       3.72       5.53
C       4.93       4.20       4.93
C       4.76       2.80       4.29
C       6.09       2.32       4.92
C       6.87       2.79       3.66
C       5.55       3.30       3.06
C       4.99       3.07       1.77
C       8.32       5.01       4.23
C       8.88       5.10       2.80
C      10.16       5.93       2.74
N       5.53       5.97       3.07
O       7.70       3.47       7.29
O       6.37       5.27       7.21
O       5.04       1.88       1.34
O       4.12       3.91       1.44
O       5.42       7.02       3.82
O       5.65       6.11       1.79
