110

Co       2.83       5.12       2.29
Co       8.47      11.52      10.25
H       5.07       5.44      10.33
H       5.27      12.26      12.10
H       6.38       7.37       9.50
H       5.86      11.31       1.49
H       2.70       9.78       6.42
H       9.95      14.83       6.56
H       5.67       3.38       6.12
H       2.63      10.93      11.19
H       3.45      13.84       3.06
H       4.43       9.94       2.24
H       9.38       7.77       1.45
H       4.86      14.91       5.07
H      10.76      11.93       2.22
H       7.30       6.51       2.97
H       7.19      16.48      11.22
H       1.63       6.60      10.72
H       8.22       5.86       0.42
H       2.96       8.52      11.58
H       5.62       4.56       1.36
H       6.40      14.19      11.08
H      10.16      10.07       1.33
H       7.71       3.65       2.32
H       4.72      10.00      10.24
H       6.02       9.42       8.28
H       9.76       7.49       6.35
H       5.31       7.43       4.14
H       7.79       8.46       7.53
H       5.93       2.13       0.99
H       8.94      14.32       9.45
H       7.34      13.10       1.84
H       3.66       4.34       5.01
H      10.09      16.34      10.32
H       9.01       3.03       4.29
H      10.92      13.85       8.37
H       3.30       7.91       3.10
H       4.24      12.89       9.58
H       4.28       8.35       5.96
H       9.33      10.76       7.52
H       6.79      13.89       6.28
H      11.51      17.70      11.07
C       7.40       6.93       3.96
C       6.29       7.46       4.62
C       5.57       6.10      11.04
C       1.24       1.67       1.09
C       5.64      13.33       8.00
C       3.84      10.14       9.60
C       4.35       9.06       1.61
C       8.16      18.76      12.43
C       5.20       8.55       6.52
C       3.43      14.46       6.65
C       9.36      14.34      10.45
C       8.78       7.50       5.88
C       7.43      13.26       0.76
C       7.59       9.29      10.95
C      11.71      17.64      12.14
C       1.94       2.87       1.62
C       4.72      14.47       6.06
C       3.71       7.94       2.10
C       7.68       8.04       6.53
C      11.11      12.36       0.13
C       9.92      10.17       0.27
C       9.70      13.17      12.42
C       8.10       2.85       4.87
C       6.40       8.02       5.91
C      10.88      15.03       6.02
C       6.88       3.40       4.31
C       5.67       4.29       2.41
C       6.04      11.26       0.41
C      10.23      10.55       8.08
C       5.70       3.60       5.06
C      11.26      12.59       1.52
C       4.37      13.33       8.59
C       3.36      13.67       1.99
C       8.65       6.93       4.59
C       2.68      10.67      10.14
C       6.83       3.77       2.95
C       4.04       6.79       0.11
C       3.89       9.78       8.24
C       6.90       8.08      11.47
C       9.00       7.87       0.43
C       6.78      12.71       8.71
C       6.96      16.57      12.28
C      10.01      15.46      10.94
C       5.80      13.91       6.73
C       4.58       4.14       4.46
C       5.12       9.24       7.68
C       2.47       7.84      12.27
C       6.03      14.28      12.10
C       2.72      10.00       7.48
C       4.87       9.06       0.30
C       6.30       7.18      10.57
C       3.28      13.87       7.92
C       5.44       1.45       0.30
C       1.73       6.76      11.79
C      10.54      15.44      12.25
C       9.82       6.33       3.90
N      10.20      10.88       9.40
N       3.56       6.79       1.38
N       9.21      13.20      11.16
N       4.55       4.49       3.15
O       7.96      12.77       8.25
O       7.69       9.46       9.69
O       6.55      12.10       9.83
O       2.07       3.02       2.87
O       2.37       6.41       4.37
O       9.60       5.71       2.78
O       8.03      10.19      11.77
O       2.36       3.79       0.80
