21

C       7.41       4.00      20.27
Cd       9.96       2.79      21.28
Cd       9.96       5.07      13.93
Cd       9.22       3.93      17.60
C      11.14       6.14      16.20
C      11.71       3.88      12.35
O      10.68       4.91      16.27
O      10.89       6.84      15.18
O      11.19       2.85      23.19
O      11.41       4.57      21.76
O       7.95       3.75      21.40
O       7.78       3.44      19.17
O      10.68       2.96      18.94
O      10.89       1.03      20.03
O      11.19       5.01      12.02
C       7.41       3.86      14.94
O      11.41       3.30      13.45
O       7.78       4.42      16.04
O       7.95       4.12      13.81
C      11.14       1.73      19.00
C      11.71       3.98      22.85
