22

Na       5.97      -0.26       1.72
Na       5.98       0.26      -1.72
Cd       3.17       1.57       0.37
Cd       8.77      -1.57      -0.37
C       3.37      -1.04      -0.63
O       2.32      -0.32      -0.54
O       4.51      -0.66      -0.18
C       3.26       1.52       3.07
O       7.12      -2.19       1.37
O       7.96      -3.71      -0.03
O       2.21       1.89       2.44
O       4.33       1.16       2.44
O       9.63       0.31       0.54
O       7.44       0.66       0.18
O       3.99       3.71       0.03
O       4.83       2.19      -1.37
O       9.74      -1.89      -2.44
O       7.62      -1.16      -2.44
C       4.80       3.38      -0.89
C       8.58       1.04       0.63
C       8.69      -1.52      -3.07
C       7.14      -3.38       0.89
