52

Zn      21.01      20.77      30.74
C      21.83      19.12      28.68
O      16.85      14.63      31.12
Zn      19.00      18.59      29.37
O      17.81      13.86      33.05
Zn      18.46      19.65      26.28
Zn      19.76      22.02      27.67
O      20.71      16.27      36.37
Zn      16.93      16.57      31.22
O      19.82      14.53      35.19
O      20.31      19.69      25.60
Zn      18.93      18.75      32.59
O      21.08      21.74      26.24
O      19.16      17.00      33.80
Zn      18.18      15.32      34.29
Zn      19.48      17.69      35.68
C      16.76      16.71      36.36
O      16.87      19.09      29.41
C      20.73      15.08      35.89
O      19.24      20.15      34.07
C      19.97      20.35      35.08
O      20.32      19.43      35.93
C      16.11      18.22      33.29
H      17.87      20.51      28.51
C      22.20      18.78      32.36
C      21.18      20.63      25.60
H      20.06      16.83      33.45
C      20.71      23.63      30.05
O      19.21      20.04      31.03
O      21.02      18.23      29.11
O      21.70      20.38      28.92
O      22.40      19.94      31.85
O      21.06      18.25      32.55
O      20.13      23.47      28.92
O      21.09      22.71      30.85
O      18.69      17.19      27.90
O      17.62      17.91      26.04
C      17.21      22.26      26.08
O      17.23      21.06      25.60
O      18.12      22.81      26.78
O      18.77      20.33      28.16
O      17.63      17.65      36.37
H      18.49      20.70      31.01
C      15.74      18.56      29.60
O      16.86      15.60      35.73
O      18.73      17.30      30.93
C      17.97      16.99      26.88
O      16.92      19.10      32.86
O      16.23      16.96      33.05
C      17.22      13.71      31.92
O      15.54      17.39      30.11
H      19.44      16.64      30.95
