712

H       4.09       8.75       9.51
H       5.61       7.33       8.38
H       2.19       9.61       5.85
H       3.70       8.17       4.72
H       5.82       7.31       2.94
H       7.33       8.76       1.84
H       9.17       9.64       5.53
H       7.67       8.17       6.63
H       8.42       5.72       5.90
H       9.44       4.21       7.42
H       5.67       3.31       9.05
H       4.65       4.83       7.56
H       2.96       5.72       5.45
H       6.72       4.83       3.77
H       5.70       3.26       2.32
H       1.93       4.18       3.97
H      10.18      10.44       3.46
H       1.10      10.17       8.04
H       7.60       2.20       9.93
H       3.77       1.97       1.67
H      24.98      26.77       1.90
H      26.46      28.23       3.02
H      23.11      25.88       5.57
H      24.59      27.36       6.69
H      26.66      28.23       8.46
H      28.20      26.82       9.58
H      30.08      25.96       5.91
H      28.55      27.39       4.79
H      29.28      29.85       5.53
H      30.31      31.36       4.03
H      26.55      32.25       2.36
H      25.52      30.71       3.84
H      23.82      29.81       5.97
H      27.58      30.73       7.63
H      26.55      32.29       9.08
H      22.79      31.35       7.45
H      31.20      25.43       8.10
H      22.12      25.07       3.49
H      28.49      33.36       1.50
H      24.62      33.59       9.72
H      28.31       4.27      32.03
H      26.82       5.72      30.91
H      30.14       3.33      28.35
H      28.66       4.81      27.23
H      26.55       5.71      25.46
H      25.04       4.26      24.36
H      23.25       3.35      28.07
H      24.75       4.82      29.16
H      23.97       7.28      28.43
H      22.94       8.79      29.93
H      26.72       9.74      31.54
H      27.74       8.20      30.06
H      29.44       7.26      27.93
H      25.67       8.20      26.30
H      26.68       9.76      24.85
H      30.46       8.81      26.44
H      22.21       2.57      26.00
H      31.15       2.55      30.43
H      24.77      10.82      32.43
H      28.61      11.04      24.19
H       7.27      31.22      24.40
H       5.75      29.80      25.52
H       9.15      32.11      28.06
H       7.63      30.67      29.19
H       5.53      29.79      30.97
H       4.03      31.25      32.08
H       2.20      32.16      28.40
H       3.69      30.68      27.29
H       2.91      28.23      28.01
H       1.88      26.69      26.53
H       5.66      25.75      24.91
H       6.67      27.31      26.36
H       8.38      28.22      28.47
H       4.63      27.31      30.14
H       5.66      25.75      31.59
H       9.42      26.68      29.94
H       1.19      32.95      30.48
H      10.26      32.64      25.87
H       3.72      24.44      24.28
H       7.59      24.47      32.24
H      17.81      44.11      19.27
H      16.28      43.03      17.82
H      19.55      40.39      20.19
H      18.04      39.31      18.71
H      15.92      37.57      17.80
H      14.48      36.50      19.34
H      12.78      40.23      20.32
H      14.20      41.29      18.76
H      13.35      40.59      16.30
H      12.33      42.12      14.82
H      16.11      43.69      13.83
H      17.13      42.18      15.33
H      18.83      40.06      16.26
H      15.05      38.44      15.33
H      16.06      37.03      13.71
H      19.84      38.62      14.67
H      12.07      38.25      21.53
H      20.58      42.43      21.02
H      14.15      44.73      12.92
H      18.04      36.63      12.26
H      38.74      36.44      37.23
H      37.23      37.53      38.69
H      40.52      40.16      36.33
H      39.02      41.24      37.82
H      36.91      42.99      38.74
H      35.42      44.09      37.27
H      33.66      40.38      36.30
H      35.14      39.29      37.79
H      34.34      40.01      40.26
H      33.29      38.48      41.74
H      37.06      36.84      42.67
H      38.09      38.35      41.17
H      39.81      40.47      40.27
H      36.05      42.12      41.21
H      37.08      43.53      42.82
H      40.84      41.90      41.85
H      32.67      42.43      35.46
H      41.52      38.12      35.48
H      35.09      35.82      43.59
H      39.07      43.91      44.27
H      35.44      21.58      14.60
H      36.90      20.52      16.13
H      33.80      17.84      13.59
H      35.24      16.78      15.14
H      37.35      15.04      16.12
H      38.80      13.99      14.59
H      40.45      17.73      13.59
H      39.02      18.78      15.15
H      39.87      18.06      17.60
H      40.88      19.49      19.20
H      37.10      21.03      20.22
H      36.08      19.62      18.60
H      34.39      17.50      17.60
H      38.17      15.93      18.60
H      37.16      14.52      20.21
H      33.37      16.06      19.19
H      41.20      15.76      12.41
H      33.05      19.81      12.42
H      39.07      21.43      21.66
H      35.18      14.12      21.65
H      14.55      13.93      41.73
H      16.05      15.02      40.26
H      12.76      17.64      42.63
H      14.26      18.72      41.14
H      16.36      20.48      40.21
H      17.85      21.58      41.68
H      19.62      17.87      42.65
H      18.14      16.78      41.16
H      18.94      17.49      38.69
H      19.98      15.96      37.22
H      16.21      14.32      36.28
H      15.18      15.83      37.78
H      13.47      17.96      38.69
H      17.22      19.61      37.73
H      16.19      21.02      36.13
H      12.43      19.39      37.11
H      20.61      19.92      43.48
H      11.76      15.60      43.48
H      18.19      13.31      35.36
H      14.20      21.40      34.69
H      38.03       2.67       0.21
H       2.73       0.33       0.43
H       1.41      43.98      44.03
H      38.88       6.39       1.72
H      38.82       5.54       0.17
H      40.39       5.87       0.95
H      17.00      32.84      11.29
H      23.60      35.20      11.01
H      22.30      36.57      12.45
H      17.85      29.13       9.77
H      17.81      29.97      11.32
H      19.37      29.65      10.51
H      36.25      10.35      22.67
H      29.63      12.63      22.87
H      30.92      14.01      21.42
H      35.42       6.65      24.24
H      35.46       7.46      22.67
H      33.90       7.15      23.48
H      15.23      25.20      33.74
H       8.63      22.83      33.48
H       9.95      21.45      34.91
H      14.38      28.91      32.25
H      14.46      28.05      33.79
H      12.88      28.39      33.03
H      24.93      14.93      32.06
H      19.51      11.41      34.77
H      20.76      10.00      33.31
H      24.89      17.95      34.82
H      24.23      16.55      35.68
H      25.61      16.36      34.56
H       6.58      36.82      22.73
H      13.08      34.23      22.35
H      11.72      32.86      23.77
H       7.69      40.57      21.23
H       7.75      39.77      22.81
H       9.23      39.93      21.82
H      27.54      21.23      11.25
H      34.04      23.83      11.59
H      32.67      25.20      10.18
H      28.67      17.49      12.74
H      28.71      18.29      11.16
H      30.20      18.13      12.14
H      17.16       2.62      22.98
H      23.78       0.31      22.90
H      22.40      43.94      21.54
H      18.21       6.39      24.43
H      18.18       5.58      22.86
H      19.72       5.81      23.72
H      38.07      32.91      33.54
H       2.79      35.20      33.57
H       1.43      36.60      34.95
H      39.10      29.14      32.08
H      39.08      29.94      33.65
H      40.62      29.71      32.78
H      15.22      10.41       0.42
H       8.58      12.68       0.35
H       9.95      14.08      44.00
H      14.20       6.65       1.89
H      14.22       7.44       0.31
H      12.68       7.21       1.18
H       4.79      14.30      11.23
H      40.17      11.75      11.55
H      41.53      10.38      10.13
H       3.69      18.04      12.75
H       3.65      17.25      11.17
H       2.16      17.42      12.15
H      28.36      37.47       1.90
H      33.76      33.92      44.18
H      32.50      32.51       0.61
H      28.43      40.51      44.16
H      29.09      39.11      43.30
H      27.70      38.91      44.40
H      17.12      25.10       0.40
H      23.76      22.85       0.39
H      22.41      21.45      44.03
H      18.12      28.87       1.89
H      18.12      28.07       0.31
H      19.65      28.30       1.20
H      36.15       2.60      33.53
H      29.52       0.32      33.52
H      30.87      43.95      34.91
H      35.14       6.36      32.05
H      35.15       5.56      33.63
H      33.61       5.79      32.74
H       7.44      43.12       9.55
H      12.84       1.61      12.32
H      11.61       3.02      10.84
H       7.45      40.10      12.32
H       8.10      41.50      13.18
H       6.73      41.70      12.05
H      38.01      25.20      22.67
H       2.72      22.88      22.92
H       1.42      21.52      21.47
H      38.85      28.90      24.24
H      38.81      28.08      22.68
H      40.37      28.39      23.50
C       3.69       3.58       2.96
C       5.09       3.79       2.96
C       5.70       4.73       3.82
C       4.96       5.53       4.72
C       3.56       5.26       4.76
C       2.94       4.33       3.89
C       5.69       6.51       5.67
C       6.42       5.53       6.61
C       5.67       4.73       7.52
C       6.27       3.82       8.41
C       7.67       3.61       8.43
C       8.43       4.34       7.48
C       7.82       5.26       6.59
C       6.63       7.48       4.91
C       4.77       7.49       6.43
C       4.87       7.76       7.82
C       3.99       8.64       8.50
C       2.96       9.32       7.81
C       2.90       9.13       6.40
C       3.80       8.27       5.74
C       6.54       7.76       3.51
C       7.42       8.64       2.85
C       8.43       9.34       3.55
C       8.47       9.15       4.96
C       7.58       8.27       5.61
C       1.99      10.10       8.46
C       3.14       2.61       2.10
C       8.23       2.69       9.33
C       9.38      10.17       2.93
C      24.55      31.97       8.45
C      25.95      31.76       8.45
C      26.56      30.82       7.59
C      25.82      30.01       6.68
C      24.42      30.28       6.66
C      23.80      31.21       7.52
C      26.55      29.04       5.74
C      27.29      30.02       4.80
C      26.54      30.82       3.89
C      27.15      31.73       3.00
C      28.55      31.94       3.00
C      29.30      31.21       3.95
C      28.68      30.30       4.84
C      27.49      28.07       6.50
C      25.63      28.06       4.98
C      25.74      27.78       3.58
C      24.87      26.89       2.91
C      23.86      26.18       3.61
C      23.80      26.38       5.01
C      24.68      27.27       5.67
C      27.39      27.79       7.90
C      28.29      26.93       8.57
C      29.32      26.26       7.87
C      29.37      26.44       6.47
C      28.46      27.30       5.81
C      22.93      25.35       2.97
C      24.00      32.94       9.31
C      29.11      32.86       2.10
C      30.30      25.48       8.52
C      28.69       9.43      25.46
C      27.29       9.22      25.47
C      26.69       8.29      26.34
C      27.44       7.47      27.23
C      28.84       7.73      27.25
C      29.45       8.67      26.38
C      26.70       6.50      28.18
C      25.97       7.48      29.12
C      26.72       8.29      30.02
C      26.11       9.21      30.91
C      24.71       9.41      30.93
C      23.95       8.66      29.99
C      24.57       7.74      29.11
C      25.77       5.53      27.43
C      27.63       5.53      28.95
C      27.54       5.27      30.35
C      28.41       4.38      31.01
C      29.41       3.66      30.31
C      29.45       3.84      28.91
C      28.57       4.73      28.25
C      25.84       5.26      26.03
C      24.95       4.37      25.38
C      23.96       3.67      26.09
C      23.93       3.85      27.49
C      24.82       4.73      28.14
C      30.35       2.82      30.95
C      29.24      10.39      24.60
C      24.15      10.33      31.83
C      23.01       2.84      25.47
C       7.66      26.07      30.95
C       6.26      26.28      30.95
C       5.65      27.22      30.09
C       6.39      28.03      29.19
C       7.79      27.76      29.15
C       8.41      26.83      30.02
C       5.65      29.01      28.25
C       4.91      28.03      27.30
C       5.66      27.21      26.40
C       5.05      26.28      25.54
C       3.65      26.08      25.53
C       2.89      26.83      26.45
C       3.51      27.76      27.33
C       4.72      29.98      29.01
C       6.58      29.98      27.48
C       6.48      30.25      26.08
C       7.37      31.12      25.41
C       8.39      31.80      26.10
C       8.44      31.62      27.51
C       7.54      30.76      28.17
C       4.81      30.25      30.41
C       3.93      31.13      31.07
C       2.93      31.84      30.37
C       2.89      31.66      28.97
C       3.77      30.77      28.31
C       9.36      32.58      25.45
C       8.22      25.11      31.81
C       3.10      25.11      24.67
C       1.99      32.68      31.00
C      18.07      37.64      14.05
C      16.67      37.64      14.27
C      16.07      38.48      15.23
C      16.82      39.36      16.05
C      18.22      39.39      15.78
C      18.83      38.54      14.83
C      16.10      40.30      17.04
C      15.36      41.26      16.07
C      16.11      42.15      15.25
C      15.50      43.05      14.35
C      14.10      43.09      14.17
C      13.34      42.16      14.92
C      13.96      41.26      15.83
C      15.17      39.55      18.02
C      17.04      41.05      18.01
C      16.99      42.45      18.27
C      17.88      43.10      19.16
C      18.87      42.37      19.87
C      18.88      40.97      19.68
C      17.98      40.33      18.80
C      15.23      38.15      18.28
C      14.39      37.51      19.21
C      13.45      38.24      19.98
C      13.42      39.64      19.78
C      14.26      40.27      18.84
C      19.81      42.98      20.71
C      18.62      36.84      13.04
C      13.54      44.04      13.30
C      12.59      37.65      20.93
C      39.08      42.90      42.47
C      37.68      42.91      42.27
C      37.07      42.07      41.31
C      37.81      41.18      40.48
C      39.21      41.15      40.74
C      39.83      41.99      41.70
C      37.07      40.25      39.49
C      36.33      39.30      40.46
C      37.08      38.39      41.26
C      36.46      37.49      42.16
C      35.06      37.47      42.35
C      34.31      38.42      41.62
C      34.93      39.32      40.72
C      36.14      41.01      38.53
C      38.01      39.50      38.51
C      37.94      38.11      38.24
C      38.82      37.46      37.35
C      39.81      38.17      36.64
C      39.84      39.58      36.84
C      38.95      40.22      37.72
C      36.21      42.41      38.27
C      35.34      43.07      37.37
C      34.36      42.36      36.64
C      34.33      40.96      36.82
C      35.21      40.31      37.71
C      40.76      37.56      35.79
C      39.64      43.70      43.48
C      34.49      36.52      43.22
C      33.43      42.98      35.78
C      35.15      15.11      19.85
C      36.55      15.12      19.64
C      37.15      15.96      18.68
C      36.40      16.83      17.84
C      34.99      16.84      18.09
C      34.38      15.99      19.05
C      37.13      17.78      16.87
C      37.86      18.73      17.84
C      37.10      19.60      18.69
C      37.70      20.43      19.65
C      39.10      20.44      19.86
C      39.87      19.56      19.06
C      39.26      18.72      18.09
C      38.07      17.04      15.89
C      36.18      18.53      15.89
C      36.22      19.93      15.65
C      35.37      20.57      14.72
C      34.44      19.83      13.95
C      34.43      18.43      14.14
C      35.29      17.80      15.06
C      38.03      15.63      15.64
C      38.88      15.00      14.71
C      39.81      15.73      13.94
C      39.82      17.14      14.13
C      38.97      17.77      15.06
C      33.57      20.42      13.01
C      34.60      14.32      20.86
C      39.65      21.23      20.88
C      40.68      15.15      13.00
C      14.19      20.38      36.48
C      15.59      20.40      36.69
C      16.20      19.56      37.64
C      15.46      18.67      38.47
C      14.06      18.63      38.21
C      13.44      19.47      37.26
C      16.20      17.74      39.46
C      16.94      16.79      38.49
C      16.20      15.87      37.69
C      16.81      14.97      36.80
C      18.22      14.95      36.61
C      18.97      15.91      37.33
C      18.34      16.81      38.23
C      17.14      18.50      40.43
C      15.27      16.99      40.44
C      15.34      15.60      40.71
C      14.46      14.95      41.61
C      13.47      15.66      42.32
C      13.44      17.07      42.12
C      14.33      17.71      41.23
C      17.07      19.90      40.68
C      17.94      20.56      41.57
C      18.92      19.85      42.31
C      18.95      18.45      42.13
C      18.07      17.80      41.24
C      12.53      15.05      43.17
C      13.63      21.18      35.47
C      18.79      14.01      35.73
C      19.85      20.47      43.16
C       1.18       1.67       1.00
C      41.71       1.93       0.79
C      40.92       1.09      44.97
C      41.49      45.00      44.31
C       0.96      44.77      44.50
C       1.74       0.56       0.32
C      39.02       2.48       0.37
C      39.79       3.30       1.20
C      39.35       5.60       1.12
C      22.05      33.85      10.45
C      20.67      33.60      10.67
C      19.89      34.43      11.53
C      20.46      35.55      12.19
C      21.84      35.78      11.98
C      22.61      34.97      11.12
C      17.99      33.03      11.12
C      18.76      32.21      10.28
C      18.32      29.92      10.36
C      31.19      11.32      23.46
C      32.57      11.07      23.25
C      33.35      11.90      22.38
C      32.77      13.01      21.71
C      31.39      13.23      21.91
C      30.62      12.42      22.76
C      35.26      10.54      22.83
C      34.50       9.72      23.67
C      34.95       7.42      23.64
C      10.18      24.18      32.92
C      11.55      24.44      33.14
C      12.34      23.61      33.99
C      11.78      22.48      34.64
C      10.40      22.24      34.44
C       9.62      23.06      33.59
C      14.24      25.00      33.58
C      13.47      25.83      32.74
C      13.92      28.12      32.84
C      20.71      13.14      34.55
C      21.88      13.61      33.89
C      22.63      12.76      33.02
C      22.24      11.42      32.80
C      21.07      10.96      33.45
C      20.33      11.80      34.31
C      24.11      14.58      32.56
C      23.40      15.40      33.45
C      24.67      16.89      34.74
C      11.60      35.68      21.91
C      10.24      36.00      22.15
C       9.43      35.17      22.99
C       9.96      34.03      23.62
C      11.31      33.71      23.36
C      12.11      34.51      22.52
C       7.56      36.61      22.57
C       8.36      37.43      21.76
C       8.15      39.75      21.79
C      32.57      22.38      12.03
C      31.20      22.06      11.81
C      30.38      22.89      10.98
C      30.91      24.04      10.34
C      32.26      24.36      10.59
C      33.07      23.55      11.43
C      28.52      21.45      11.40
C      29.33      20.63      12.22
C      29.12      18.30      12.18
C      22.25       1.61      23.55
C      20.86       1.88      23.40
C      20.04       1.05      22.59
C      20.57      44.95      21.91
C      21.96      44.71      22.04
C      22.78       0.52      22.84
C      18.16       2.43      23.09
C      18.97       3.28      23.87
C      18.66       5.59      23.84
C       1.25      33.90      32.92
C      41.77      33.64      33.09
C      40.96      34.47      33.91
C      41.50      35.60      34.59
C       0.98      35.83      34.44
C       1.79      34.99      33.64
C      39.07      33.09      33.42
C      39.87      32.25      32.64
C      39.55      29.94      32.67
C      10.13      11.39       1.01
C      11.51      11.13       0.85
C      12.33      11.97       0.03
C      11.79      13.09      44.38
C      10.40      13.31      44.51
C       9.59      12.48       0.29
C      14.22      10.60       0.54
C      13.41       9.75       1.32
C      13.74       7.44       1.30
C      41.66      13.19      12.01
C       1.12      13.49      11.79
C       1.93      12.67      10.95
C       1.40      11.53      10.30
C       0.04      11.22      10.55
C      41.15      12.02      11.39
C       3.81      14.09      11.38
C       3.01      14.91      12.20
C       3.23      17.23      12.18
C      32.57      35.67      44.42
C      31.40      36.14       0.05
C      30.65      35.30       0.92
C      31.03      33.94       1.13
C      32.19      33.48       0.48
C      32.94      34.32      44.65
C      29.18      37.12       1.39
C      29.89      37.94       0.50
C      28.65      39.44      44.24
C      22.20      24.13       1.04
C      20.82      24.39       0.87
C      20.01      23.55       0.04
C      20.57      22.44      44.38
C      21.96      22.21      44.54
C      22.76      23.04       0.32
C      18.11      24.92       0.53
C      18.91      25.76       1.32
C      18.58      28.07       1.30
C      31.07       1.61      32.88
C      32.45       1.87      33.06
C      33.26       1.03      33.89
C      32.71      44.94      34.56
C      31.32      44.72      34.41
C      30.52       0.52      33.60
C      35.16       2.41      33.40
C      34.36       3.25      32.61
C      34.68       5.57      32.64
C      11.64      44.90      12.08
C      10.47      44.44      11.42
C       9.74       0.25      10.53
C      10.12       1.60      10.31
C      11.29       2.06      10.97
C      12.02       1.22      11.85
C       8.25      43.47      10.06
C       8.95      42.65      10.96
C       7.67      41.17      12.24
C       1.16      24.21      23.50
C      41.69      24.46      23.28
C      40.91      23.63      22.41
C      41.49      22.52      21.74
C       0.96      22.29      21.95
C       1.73      23.10      22.81
C      39.00      25.01      22.84
C      39.76      25.83      23.69
C      39.32      28.12      23.65
N      39.61       1.42      44.79
N      41.10       2.99       1.38
N       1.88       2.50       1.80
N      40.83      44.19      43.45
N      18.59      34.09      11.72
N      20.06      32.53      10.08
N      22.75      33.02       9.64
N      19.81      36.35      13.05
N      34.66      11.58      22.21
N      33.19      10.02      23.86
N      30.49      10.49      24.27
N      33.41      13.81      20.84
N      13.65      23.94      34.17
N      12.16      25.51      32.55
N       9.47      25.01      32.12
N      12.44      21.67      35.50
N      23.71      13.30      32.39
N      22.30      14.89      34.06
N      20.03      13.98      35.36
N      22.89      10.56      31.98
N       8.12      35.52      23.16
N       9.65      37.08      21.56
N      12.41      36.37      21.08
N       9.15      33.24      24.37
N      29.08      22.53      10.82
N      30.63      20.98      12.40
N      33.39      21.69      12.86
N      30.09      24.81       9.60
N      18.72       1.36      22.48
N      20.29       2.96      24.00
N      23.09       2.39      24.26
N      19.76      44.21      21.12
N      39.64      34.16      34.03
N      41.19      32.56      32.49
N       2.09      33.12      32.21
N      40.70      36.34      35.38
N      13.65      11.66      44.95
N      12.10      10.06       1.45
N       9.29      10.62       1.72
N      12.59      13.83      43.58
N       3.24      13.01      10.79
N       1.71      14.56      12.38
N      40.85      13.88      12.84
N       2.20      10.75       9.55
N      29.58      35.84       1.56
N      30.99      37.43      44.91
N      33.25      36.50      43.60
N      30.38      33.09       1.95
N      18.69      23.86      44.94
N      20.23      25.45       1.47
N      23.03      24.91       1.76
N      19.77      21.69      43.58
N      34.58       1.35      34.02
N      33.04       2.94      32.46
N      30.24       2.38      32.16
N      33.50      44.20      35.37
N       8.67      44.75       9.89
N      10.04      43.15      11.58
N      12.31      44.07      12.91
N       9.49       2.45       9.48
N      39.60      23.96      22.23
N      41.07      25.51      23.88
N       1.85      25.03      24.32
N      40.84      21.73      20.87
O      39.24       4.37       1.86
O      18.20      31.15       9.63
O      35.06       8.67      24.34
O      14.02      26.89      32.09
O      23.75      16.71      33.64
O       7.83      38.52      21.12
O      28.81      19.54      12.85
O      18.45       4.35      24.53
O      39.34      31.18      31.98
O      13.94       8.68       1.99
O       3.53      15.99      12.85
O      29.55      39.25       0.32
O      18.37      26.83       1.98
O      34.89       4.32      31.95
O       8.59      41.34      11.15
O      39.20      26.88      24.36
