22

Gd      10.79      18.14      22.53
Gd      14.14      19.54      21.42
O      10.81      18.04      20.18
O      12.74      19.11      19.71
O      13.18      21.74      21.41
O      11.65      20.26      22.08
O      12.12      18.64      24.31
O      14.11      19.57      23.75
C       8.32      18.51      25.81
C       8.89      18.33      24.45
C      16.51      19.10      18.08
C      15.98      19.29      19.46
C      12.96      16.26      22.36
C      11.66      18.53      19.36
C      12.01      21.47      21.80
C      13.25      19.14      24.60
O       9.06      19.35      23.68
O       9.30      17.17      24.09
O      15.68      20.47      19.86
O      15.74      18.26      20.20
O      11.79      15.98      22.76
O      13.26      17.44      21.93
