28

H       2.32       4.75       8.43
H       2.87       6.00       6.35
H      -0.04       3.68       4.19
H      -0.56       2.41       6.26
H       3.71       6.12       4.06
H       1.76       8.37       0.98
H      -0.59       5.86       3.56
O      -0.57       2.05       8.75
O       0.87       3.38       9.87
O      -1.81       6.84       1.57
O      -0.88       8.83       1.12
O       4.23       8.23       0.79
O       5.23       7.49       2.65
C       0.35       2.94       8.78
C       0.81       3.53       7.50
C       1.82       4.51       7.49
C       2.12       5.21       6.33
C       1.41       4.97       5.14
C       0.48       3.92       5.12
C       0.18       3.20       6.28
C       1.54       5.87       3.97
C       2.78       6.39       3.56
C       2.86       7.26       2.46
C       1.69       7.67       1.82
C       0.45       7.18       2.23
C       0.39       6.25       3.27
C      -0.83       7.65       1.59
C       4.20       7.70       1.96
