16

V       6.30       9.86      27.43
O       4.33      10.55      28.18
V       2.71      10.08      27.66
O       7.92       9.39      26.92
C       4.29      10.18      25.08
C       7.88       9.76      30.02
C       4.28       7.46      27.53
C       7.87      12.48      27.57
O       3.13       8.11      27.57
O       6.72      11.84      27.53
O       5.50      10.06      25.62
O       1.91       9.88      29.47
O       5.50       8.01      27.44
O       1.91      11.94      27.65
O       6.72       9.76      29.36
O       3.13      10.18      25.73
