16

V       0.88      13.09       0.12
O       2.85      12.40      -0.63
O      -0.74      13.56       0.63
V       4.47      12.87      -0.12
C       2.89      12.76       2.47
C      -0.70      13.20      -2.47
C       2.90      15.49       0.02
C      -0.69      10.47      -0.02
O       4.05      14.85      -0.02
O       0.46      11.12       0.02
O       1.68      12.89       1.93
O       5.27      13.07      -1.93
O       1.68      14.95       0.11
O       5.27      11.02      -0.11
O       0.46      13.19      -1.81
O       4.05      12.77       1.81
