13

N       7.83       3.46       5.11
H       4.91       2.55       3.67
O       7.09       0.33       1.21
H       9.73       2.79       4.58
H       8.93       1.33       2.72
O       5.02       0.70       2.05
C       6.85       1.80       3.07
C       6.28       0.87       2.02
C       8.22       1.91       3.31
H       5.87       4.03       5.44
C       6.51       3.41       4.83
C       8.67       2.73       4.34
C       5.99       2.59       3.83
