13

N       6.68       9.72      11.55
O       7.42      12.85      15.45
H       4.78      10.39      12.07
H       8.64       9.16      11.22
C       8.24      12.32      14.64
C       6.29      11.27      13.35
C       7.67      11.38      13.59
C       8.52      10.59      12.82
H       9.60      10.64      12.99
C       8.00       9.77      11.83
O       9.49      12.49      14.60
H       5.58      11.85      13.94
C       5.84      10.46      12.32
