13

H      10.60       4.36       9.17
N       9.45       5.84       8.28
O       8.47       9.88       8.23
C       9.60       9.58       8.74
H      11.93       5.95      10.57
C      10.42       5.43       9.13
C      10.92       7.70       9.79
H       8.39       7.47       7.53
C       9.19       7.16       8.20
O      10.49      10.39       9.12
C      11.16       6.33       9.90
C       9.90       8.12       8.93
H      11.49       8.44      10.34
