20

O      18.61      12.18      11.80
O      17.58      11.34      10.04
O      15.44      13.32      10.80
O      14.89      15.16       9.67
H      19.04      17.14       8.37
H      16.70      16.57       9.06
C      19.85      15.27       9.05
C      18.81      16.19       8.85
C      17.51      15.87       9.22
C      17.21      14.62       9.78
C      18.25      13.69      10.00
C      19.56      14.02       9.64
C      21.22      15.65       8.58
C      20.69      13.03       9.82
C      18.09      12.34      10.65
C      15.77      14.36      10.09
O      22.26      15.18       9.17
O      21.29      16.44       7.60
O      21.29      13.07      10.98
O      21.02      12.29       8.88
