20

H       7.36      11.72       7.17
H       9.70      12.28       6.48
C       6.56      13.59       6.49
C       7.59      12.67       6.69
C       8.89      12.98       6.32
C       9.19      14.23       5.75
C       8.16      15.16       5.53
C       6.84      14.83       5.90
C       5.18      13.21       6.95
C       5.72      15.82       5.72
C       8.31      16.51       4.89
C      10.63      14.50       5.45
O       4.14      13.67       6.36
O       5.11      12.42       7.94
O       5.11      15.79       4.56
O       5.38      16.56       6.66
O       7.80      16.67       3.74
O       8.83      17.51       5.50
O      10.97      15.53       4.74
O      11.51      13.70       5.87
