20

O      19.43      15.13      12.82
O      21.66      15.06      12.82
O      23.86      16.52      11.71
O      23.37      17.42      13.71
O      19.43      21.68      10.48
O      21.66      21.75      10.49
O      23.85      20.29      11.60
O      23.38      19.39       9.60
H      18.44      17.20      12.05
H      18.44      19.60      11.25
C      19.36      17.75      11.89
C      20.58      17.11      12.17
C      21.81      17.77      11.97
C      20.54      15.70      12.64
C      23.11      17.19      12.51
C      19.37      19.06      11.42
C      20.58      19.69      11.13
C      21.81      19.03      11.34
C      20.54      21.10      10.67
C      23.11      19.62      10.80
