20

H       7.37       9.18       0.59
H       9.71       8.62       1.28
C       6.56       7.32       1.27
C       7.59       8.23       1.07
C       8.89       7.92       1.44
C       9.20       6.67       2.01
C       8.16       5.74       2.23
C       6.84       6.07       1.87
C       5.18       7.70       0.81
C       5.72       5.08       2.05
C       8.32       4.39       2.88
C      10.63       6.41       2.31
O       4.14       7.23       1.41
O       5.11       8.49      -0.17
O       5.12       5.11       3.21
O       5.39       4.34       1.11
O       7.80       4.23       4.03
O       8.84       3.39       2.27
O      10.96       5.37       3.03
O      11.52       7.20       1.89
