136

Cu       4.80      13.78      14.33
Cu       5.28      16.59      14.72
Cu       2.62       4.62       4.43
Cu       2.10       5.49       6.65
Cu       4.13      15.26      16.31
Cu       4.91      15.56      12.44
Cu       2.00       7.07       4.69
Cu       6.46       3.15       5.41
Cu       2.89      10.73       9.44
Cu       1.57       0.48       0.56
Cu       3.45      10.25      19.08
Cu       7.01       1.74      10.87
Cu       5.10       4.33       3.83
Cu       4.18       3.84       6.29
Cu       6.87      12.33      14.85
Cu       2.96      15.85      14.21
Cu       4.18       6.19       5.41
Cu       4.19       2.19       4.46
Cu       6.71      14.66      15.49
Cu       7.04      14.06      13.14
Cu       5.49       8.95       0.35
Cu       2.16      17.67       8.80
Cu       6.12       8.23      10.57
Cu       8.01      19.10      18.88
H       3.22      11.05      12.57
H       4.02      13.74       9.43
H       5.05       0.86      17.43
H       3.57      16.67      19.46
H       2.48       3.40       1.38
H       6.87       0.65       3.31
H       2.30       7.68       9.54
H       2.00      10.37       6.32
H       2.67      13.27      18.79
H       4.11      10.53      15.94
H       6.01      18.15      10.22
H       6.76       0.63      14.01
H       1.15       9.62       2.69
H       4.65       7.37      19.35
H       5.97       1.76       8.16
H       1.82       4.48       9.78
H       6.54       5.98       1.14
H       4.62       9.03       3.31
H       2.79       1.56       9.09
H       2.86      18.21       5.62
H       7.66       9.66      16.72
H       4.37      11.83       0.23
H       3.08      17.71      11.58
H       7.38      14.88       9.88
H       5.76       8.37       7.59
H       5.17       5.06      10.12
H       4.57      18.72       2.01
H       7.82       3.25      19.52
H       6.95      16.22      18.36
H       2.67      18.57      16.09
H       6.90      11.16      10.07
H       6.71       9.04      13.70
C       3.53      11.92      12.01
C       3.94      13.29      10.41
C       5.02      18.88      17.67
C       4.11      17.25      18.72
C       1.84       2.92       2.10
C       0.57       1.50       3.10
C       2.13       8.09       8.55
C       1.98       9.47       6.91
C       3.05      12.83      17.88
C       3.77      11.44      16.42
C       6.13      18.26      11.29
C       6.69      19.02      13.22
C       1.60       8.78       2.19
C       2.41       7.47       0.70
C       6.72       2.53       8.27
C       1.19       3.93       9.09
C       6.04       6.53       1.93
C       5.09       8.09       3.05
C       2.89       1.21       8.07
C       3.09      19.01       6.31
C       7.26      10.50      17.27
C       6.57      11.77      18.85
C       2.39      16.88      11.45
C       7.99      15.44      10.57
C       5.50       7.39       7.96
C       5.19       5.70       9.25
C       4.58       0.70       1.74
C       5.42       2.36       0.68
C       7.60      16.58      17.58
C       1.99      17.79      16.40
C       6.94      10.91      11.12
C       6.83       9.82      12.97
N       4.00      13.02      12.57
N       4.26      13.91      11.54
N       3.47      12.03      10.65
N       5.14      17.82      16.88
N       4.55      16.77      17.56
N       4.37      18.58      18.85
N       1.57       3.43       3.30
N       0.73       2.53       3.94
N       1.24       1.70       1.93
N       1.77       7.38       7.49
N       1.67       8.26       6.43
N       2.29       9.42       8.25
N       3.30      13.53      16.77
N       3.75      12.63      15.82
N       3.33      11.51      17.71
N       5.71      17.37      12.18
N       6.06      17.87      13.43
N       6.42       0.30      11.89
N       1.93       7.64       2.80
N       2.45       6.78       1.84
N       1.88       8.73       0.85
N       7.16       3.27       7.25
N       1.13       4.17       7.79
N       7.30       2.90       9.45
N       5.80       6.04       3.14
N       5.19       7.05       3.87
N       5.62       7.82       1.82
N       3.46       1.91       7.10
N       3.37       1.13       5.96
N       2.77      19.00       7.64
N       6.95      11.68      16.73
N       6.51      12.50      17.75
N       7.04      10.49      18.62
N       2.03      16.06      12.43
N       8.09      15.14      11.87
N       1.81      16.54      10.26
N       5.06       6.40       7.20
N       4.86       5.30       8.02
N       5.59       7.01       9.27
N       4.44       1.77       2.52
N       4.99       2.85       1.84
N       5.20       1.01       0.56
N       7.81      15.92      16.45
N       8.69      16.69      15.69
N       8.27      17.77      17.60
N       7.24      11.78      12.08
N       7.17      11.08      13.27
N       6.67       9.66      11.62
