16

C      11.42      10.56       5.46
C      12.68      10.58       4.87
O      15.25      10.63       3.78
C      12.44      10.03       7.61
C      13.82      10.38       5.66
C      13.70      10.09       7.02
O      16.18      10.50       5.82
C      11.30      10.30       6.83
O       8.99      10.82       6.79
C      15.17      10.51       5.04
C       9.97      10.42       7.50
H      10.52      10.75       4.88
H      12.81      10.78       3.81
H      12.31       9.83       8.67
H      14.59       9.93       7.62
O       9.90      10.16       8.75
