16

C       3.98       8.27      14.86
O       4.07       9.99      11.03
C       3.99       8.86      13.61
O       4.07       7.03      17.40
H       7.19       8.07      15.29
H       7.19       9.06      13.18
C       5.17       7.32      16.86
C       5.17       7.98      15.51
C       5.17       9.76      11.58
C       5.17       9.16      12.96
H       3.15       8.07      15.29
H       3.16       9.06      13.18
C       6.36       8.86      13.61
C       6.37       8.27      14.86
O       6.27       9.99      11.03
O       6.27       7.03      17.40
