16

C       2.92      10.01       5.61
C       2.91       9.42       4.35
O       2.82      11.25       8.14
O       2.83       8.29       1.77
H      -0.29      10.21       6.03
C       1.72      10.30       6.25
H      -0.29       9.22       3.92
C       1.72       9.12       3.70
C       1.72       8.52       2.33
C       1.72      10.96       7.60
H       3.74      10.21       6.03
H       3.74       9.22       3.92
C       0.53      10.01       5.61
C       0.54       9.42       4.35
O       0.62      11.25       8.14
O       0.62       8.29       1.77
