170

C       0.53      13.85      33.77
C       0.09      12.52      33.87
C      15.86      12.51      33.85
C      15.40      13.83      33.74
C      14.01      14.10      33.64
C      13.07      13.04      33.66
C      13.56      11.72      33.80
C      14.94      11.45      33.89
C       1.04      11.48      33.91
C       2.42      11.78      33.84
C       2.88      13.12      33.72
C       1.91      14.15      33.69
C      16.55      15.71      32.58
C      16.54      17.04      33.03
C      16.52      17.04       0.08
C      16.52      15.72       0.53
C      16.50       0.92       1.01
C      16.47       0.63       2.40
C      16.45      16.47       2.88
C      16.48      15.43       1.91
C      16.60      15.41      31.20
C      16.63      16.44      30.23
C      16.60       0.61      30.70
C      16.56       0.91      32.09
C      16.54      14.78      33.74
C      16.37      16.15       4.25
C      16.76      16.13      28.87
C       4.24      13.41      33.52
C      11.71      13.29      33.42
C      13.86      15.42      16.55
C      12.54      15.87      16.57
C      12.54       0.10      16.59
C      13.87       0.54      16.60
C      14.16       1.93      16.69
C      13.12       2.89      16.74
C      11.78       2.41      16.70
C      11.49       1.03      16.63
C      11.48      14.94      16.54
C      11.77      13.56      16.47
C      13.10      13.08      16.42
C      14.15      14.03      16.46
C      15.74      16.57      15.42
C      17.06      16.55      15.86
C      17.07      16.54      17.27
C      15.74      16.55      17.72
C       0.94      16.55      18.20
C       0.65      16.58      19.59
C      16.49      16.60      20.07
C      15.45      16.58      19.10
C      15.43      16.55      14.04
C      16.47      16.50      13.06
C       0.63      16.50      13.53
C       0.93      16.53      14.92
C      14.80      16.57      16.57
C      16.18      16.73      21.43
C      16.14      16.41      11.70
C      13.38      11.73      16.18
C      13.40       4.24      16.97
C      16.78      16.70       9.40
C       0.40      15.81       8.63
C       0.44      15.93       7.20
C      16.68      16.78       6.54
C      15.80       0.42       7.31
C      15.93       0.46       8.74
C      16.58      16.76      26.57
C      15.73      15.87      25.85
C      15.93      15.68      24.45
C      16.81      16.54      23.73
C       0.42       0.33      24.44
C       0.36       0.38      25.87
C       9.41      12.88      34.04
C       8.69      14.07      34.34
C       7.26      14.04       0.07
C       6.55      12.87      34.02
C       7.27      11.69      33.64
C       8.70      11.67      33.75
C      12.87       6.56      16.47
C      14.10       7.28      16.45
C      14.09       8.69      16.72
C      12.86       9.41      16.70
C      11.63       8.70      16.59
C      11.63       7.26      16.58
H      16.64       1.39      30.04
H      16.55       1.88      32.40
H      16.50       1.89       0.70
H      16.44       1.41       3.06
H      16.47      14.44       2.20
H      16.64      14.42      30.91
H      13.70      15.07      33.53
H      12.91      10.92      33.78
H      15.27      10.48      33.95
H       2.20      15.13      33.60
H       0.73      10.51      33.96
H       3.08      11.00      33.83
H      17.14      15.23      28.63
H      16.03      15.24       4.50
H       4.47      14.15      32.90
H      11.47      13.84      32.63
H       1.41      16.46      12.87
H       1.91      16.50      15.23
H       1.92      16.55      17.88
H       1.44      16.61      20.25
H      14.47      16.61      19.39
H      14.45      16.54      13.75
H      15.14       2.22      16.74
H      11.00       3.07      16.78
H      10.52       0.71      16.63
H      15.13      13.73      16.40
H      10.51      15.26      16.54
H      10.98      12.90      16.40
H      15.23      16.10      11.45
H      15.29      17.10      21.67
H      14.03      11.50      15.47
H      14.07       4.46      17.68
H       2.14      14.84       6.87
H       1.47      15.42       5.50
H       1.08      14.72      10.24
H       1.55      14.11       8.80
H      14.71       1.09       5.70
H      14.11       1.57       7.14
H      15.43       1.51      10.43
H      14.85       2.18       9.07
H      14.84      13.95      24.24
H      15.50      14.47      22.84
H      14.51      15.43      27.45
H      14.00      14.77      26.05
H       1.22       1.20      22.75
H       1.61       1.97      24.12
H       1.22       1.18      27.56
H       2.00       1.59      26.19
H       6.99      15.83       1.05
H       5.60      15.03       0.76
H      10.36      15.26       0.21
H       8.96      16.09       0.26
H       5.62      10.63      33.03
H       7.03       9.87      32.73
H      10.37      10.46      33.70
H       8.97       9.64      33.61
H      16.07       8.85      17.25
H      15.24      10.25      17.37
H      15.25       5.72      15.79
H      16.07       7.13      15.92
H      10.44      10.37      16.43
H       9.63       8.98      16.20
H      10.45       5.59      16.75
H       9.63       6.98      16.98
N       1.39      15.28       6.46
N       1.13      14.84       9.28
N      14.84       1.15       6.66
N      15.29       1.42       9.48
N      16.95      16.73      10.74
N      16.70      16.95       5.20
N      15.31      14.65      23.78
N      14.71      15.25      26.52
N       1.19       1.20      23.72
N       1.23       1.16      26.59
N      16.46      16.93      27.90
N      16.98      16.43      22.40
N       6.55      15.09       0.60
N       9.39      15.23       0.22
N       6.58      10.61      33.16
N       9.40      10.50      33.62
N      10.76      12.80      34.14
N       5.20      12.77      34.09
N      15.25       9.34      17.05
N      15.25       6.64      16.11
N      10.46       9.40      16.46
N      10.46       6.56      16.71
N      12.80       5.21      16.37
N      12.79      10.76      16.81
