12

Zn       4.61       4.05       6.22
H       2.18       5.09       6.81
N       1.80       3.55       5.71
N       2.61       4.25       6.42
O       5.12       5.93       6.15
O       5.19       3.95       8.10
O       4.85       2.08       6.21
C       6.30       6.42       6.05
O       4.78       4.07       4.26
C       6.41       4.08       8.57
C       5.92       1.38       6.11
C       5.84       3.92       3.53
