35

Cd       0.89       3.68       0.82
O       0.13      -5.64      -1.50
Cd      -0.89      -3.68      -0.82
Cd       0.00       0.00       0.00
H       3.13      -0.16      -0.92
O      -3.00      -3.10       0.52
H       4.41       1.04      -1.30
O      -0.53       2.69       2.53
H       2.99       0.91      -2.34
O      -0.33       0.44       2.28
H      -3.13       0.16       0.92
H      -4.41      -1.04       1.30
H      -2.99      -0.91       2.34
C       2.64       1.91      -0.49
C      -1.27       2.73      -1.52
C       3.33       0.84      -1.30
C       0.59       6.35       0.73
C       0.68      -1.50      -2.94
C      -2.64      -1.91       0.49
C       1.27      -2.73       1.52
C      -3.33      -0.84       1.30
C      -0.59      -6.35      -0.73
C      -0.68       1.50       2.94
O      -1.41       1.56      -1.00
O      -0.61       3.68      -0.99
O       1.60       1.56       0.26
O       1.61       5.80       0.12
O      -0.13       5.64       1.50
O       3.00       3.10      -0.52
O       0.53      -2.69      -2.53
O       0.33      -0.44      -2.28
O       1.41      -1.56       1.00
O       0.61      -3.68       0.99
O      -1.60      -1.56      -0.26
O      -1.61      -5.80      -0.12
