10

C       9.58       6.31       6.19
C       8.94       6.16       7.43
C       9.43       4.22       6.65
H       9.82       7.21       5.64
H       8.55       6.91       8.10
O       9.98       2.35       5.44
O       8.94       2.10       7.37
N       9.89       5.07       5.72
N       8.85       4.83       7.71
N       9.46       2.81       6.48
