10

O       5.78       2.16      12.73
H       6.39       3.61       7.48
H       3.83       2.83       8.28
O       7.84       2.52      11.98
N       4.79       2.56      10.17
N       6.87       3.16       9.52
N       6.60       2.45      11.83
C       6.09       2.73      10.53
C       6.03       3.27       8.45
C       4.75       2.89       8.84
