28

N       2.44      -0.18      13.00
N       2.18      -0.84      14.05
C       0.91      -4.18      13.03
C       1.42      -2.01      13.96
H       1.10      -4.94      12.27
H       4.86       3.61      11.96
C       3.82       1.79      12.36
C       4.23       3.09      12.68
H       2.37      -2.82      12.20
C       3.16       2.97      14.84
C       4.40       1.24      11.08
H      -0.63      -5.31      14.03
O      -0.31      -1.61      17.17
H       2.91       3.41      15.80
O       5.56       1.64      10.82
O       3.70       0.45      10.35
O       0.37       0.01      15.77
H       4.25       4.70      14.11
H      -1.00      -3.56      15.79
H       2.09       1.13      15.22
C       1.63      -2.99      12.98
C       2.72       1.69      14.54
C       3.03       1.09      13.29
C       0.21      -1.20      16.05
C      -0.05      -4.39      14.02
C      -0.25      -3.43      15.01
C       0.50      -2.25      15.01
C       3.90       3.69      13.89
