13

C       4.53       6.49      15.53
C       5.23       7.66      15.23
C       6.34       7.59      14.39
C       6.69       6.35      13.85
C       5.95       5.23      14.19
C       7.13       8.84      14.06
O       6.64       9.96      14.38
O       8.24       8.70      13.43
N       4.89       5.29      15.03
H       3.66       6.51      16.18
H       4.92       8.61      15.67
H       7.54       6.26      13.17
H       6.20       4.24      13.82
