69

O      12.12      21.65      19.23
C       2.39      16.15      18.24
C       4.87      18.66      15.74
C       0.73      12.58      19.92
O       7.61      18.13      17.20
O       2.60      14.83      17.65
O       2.59      19.56      13.67
C       3.31      18.30      13.81
C       2.29      19.94      12.39
C       1.60      21.16      12.25
C       1.26      21.61      10.97
C       1.60      20.87       9.83
C       2.29      19.67       9.98
C       2.63      19.19      11.25
C       0.57      22.93      10.82
O       0.43      23.32       9.58
O       0.19      23.57      11.85
O      -0.07      13.73      21.86
O      -0.28      11.53      21.83
C       2.80      17.39      16.10
C       2.04      13.74      18.25
C       1.46      16.93      15.58
C       3.22      17.09      17.41
O       9.90      22.12      19.36
C       5.25      18.41      17.08
C       1.25      13.79      19.40
C       0.99      11.36      19.29
C       1.80      11.33      18.16
C       2.32      12.51      17.64
C       0.07      12.61      21.23
H      12.62      19.57      17.97
H      12.05      17.42      16.83
H       9.66      16.78      16.51
H       8.45      20.42      18.48
H       6.51      19.08      18.71
H       6.69      20.01      17.22
H       6.14      18.85      14.00
H       5.12      20.26      14.32
H       6.57      19.95      15.31
H       4.61      17.79      20.05
H       4.67      16.11      19.50
H       6.07      17.15      19.28
H       1.55      16.04      14.94
H       0.76      16.68      16.38
H       0.99      17.72      14.98
H       1.33      16.40      18.21
H       2.70      16.13      19.29
H       1.07      14.71      19.93
H       2.98      12.50      16.78
H       2.68      17.48      13.44
H       4.21      18.32      13.19
H       1.36      21.74      13.13
H       1.34      21.25       8.85
H       2.60      19.12       9.09
H       3.15      18.24      11.34
C      10.56      20.11      18.28
C      11.59      19.28      17.82
C      11.26      18.08      17.18
C       9.92      17.71      17.00
C       8.90      18.56      17.45
C       9.21      19.76      18.09
C      10.87      21.37      19.00
C       4.46      17.56      17.89
H       0.62      10.44      19.74
H       2.08      10.38      17.70
C       3.66      18.12      15.26
C       6.52      19.00      17.62
C       5.72      19.48      14.81
C       4.98      17.14      19.25
