69

H      16.75      29.85      26.91
H      17.33      31.28      28.88
H      19.72      31.68      29.47
H      20.92      29.22      26.13
H      22.87      29.18      27.50
H      22.69      30.53      26.37
H      23.24      33.88      27.07
H      24.25      33.37      25.72
H      22.81      32.43      26.16
H      24.77      28.03      28.96
H      24.70      28.82      30.55
H      23.30      28.89      29.49
H      27.82      33.34      29.98
H      28.62      31.83      29.55
H      28.39      33.07      28.32
H      28.05      30.05      30.08
H      26.68      29.02      30.50
H      28.31      28.58      31.99
H      26.39      32.01      33.75
H      26.70      34.62      28.35
H      25.16      34.75      27.49
H      28.02      34.34      24.09
H      28.03      38.65      23.98
H      26.77      38.70      26.13
H      26.22      36.60      27.30
C      18.81      29.47      26.42
C      17.79      30.04      27.18
C      18.12      30.84      28.28
C      19.45      31.07      28.61
C      20.48      30.50      27.84
C      20.16      29.70      26.74
C      18.51      28.58      25.27
C      24.91      30.21      28.89
C      26.15      30.75      29.29
C      26.58      32.00      28.81
C      25.72      32.74      27.97
C      22.86      30.28      27.43
C      23.65      33.00      26.56
C      24.40      28.92      29.50
C      27.92      32.59      29.19
C      26.98      30.05      30.33
C      24.51      32.18      27.50
C      28.64      28.89      34.10
C      28.13      29.24      32.83
C      27.05      31.16      33.86
C      29.31      27.58      34.25
C      26.07      34.14      27.59
C      27.09      35.33      25.77
C      27.77      35.30      24.55
C      28.12      36.50      23.91
C      27.77      37.73      24.49
C      27.08      37.75      25.70
C      26.75      36.56      26.35
C      28.81      36.47      22.59
H      28.76      29.36      36.20
H      27.30      31.39      35.97
C      27.34      30.38      32.72
O      19.47      28.12      24.58
C      24.13      30.90      27.94
O      17.26      28.31      25.03
C      28.39      29.68      35.23
C      27.58      30.81      35.10
O      21.76      30.81      28.23
O      26.77      30.82      31.56
O      26.78      34.11      26.32
O      28.95      37.63      22.03
O      29.18      35.36      22.10
O      29.45      26.81      33.24
O      29.66      27.14      35.41
