69

O      18.67      19.95      22.22
O      20.85      24.63      22.73
O      22.87      23.98      23.59
O      15.28      13.37      30.70
C      21.74      23.76      22.99
C      21.48      22.34      22.59
C      20.15      21.88      22.53
C      19.91      20.54      22.23
C      20.98      19.68      21.91
C      22.28      20.16      21.95
C      22.55      21.48      22.32
C      17.58      20.69      22.84
C      16.43      19.77      23.12
C      15.27      19.83      22.31
C      15.29      20.64      21.03
C      14.11      19.14      22.72
C      14.13      18.33      23.87
C      12.88      17.62      24.34
C      16.48      18.91      24.23
C      17.76      18.73      25.01
C      14.34      17.22      27.98
C      13.46      17.79      28.92
C      13.11      17.09      30.07
C      13.65      15.82      30.33
C      14.51      15.25      29.38
C      14.84      15.94      28.20
C      12.78      19.43      22.08
C      10.81      18.28      21.37
C      10.02      19.41      21.61
C       8.00      18.13      21.14
C       8.79      17.02      20.87
C       8.62      19.34      21.49
C      10.18      17.08      20.97
C      15.33      18.19      24.59
C       7.85      20.58      21.72
C      15.33      17.28      25.79
C      15.11      13.92      29.57
H      19.34      22.58      22.73
H      20.75      18.65      21.66
H      23.11      19.49      21.70
H      23.57      21.86      22.39
H      17.29      21.53      22.20
H      17.94      21.12      23.79
H      14.56      20.28      20.31
H      16.28      20.59      20.56
H      15.06      21.70      21.22
H      11.97      18.13      24.02
H      12.85      17.52      25.43
H      12.84      16.61      23.91
H      17.59      18.76      26.10
H      18.51      19.49      24.78
H      18.21      17.75      24.77
H      13.08      18.79      28.73
H      12.41      17.53      30.78
H      13.41      15.27      31.23
H      15.51      15.45      27.49
H      12.11      19.80      22.86
H      12.84      20.20      21.30
H      10.45      20.37      21.86
H       6.91      18.09      21.08
H       8.33      16.08      20.56
H      10.80      16.22      20.75
H      14.77      16.35      25.59
H      16.35      17.00      26.09
O       8.48      21.65      22.03
O       6.56      20.59      21.62
O      12.17      18.23      21.50
O      14.68      17.99      26.90
O      15.54      13.29      28.51
