69

C      17.76       9.81       6.21
C      18.02      11.23       6.60
C      19.35      11.69       6.67
C      19.59      13.04       6.97
C      18.52      13.89       7.29
C      17.21      13.42       7.25
C      16.95      12.09       6.88
C      21.92      12.88       6.35
C      23.07      13.80       6.08
C      24.23      13.74       6.89
C      24.21      12.93       8.16
C      25.39      14.43       6.48
C      25.37      15.24       5.33
C      26.61      15.96       4.86
C      23.02      14.66       4.96
H      22.21      12.05       7.00
C      25.16      16.35       1.21
C      26.04      15.79       0.28
C      26.39      16.49      -0.87
C      25.85      17.75      -1.13
H      21.56      12.45       5.41
C      24.99      18.32      -0.18
C      21.74      14.85       4.18
H      27.09      16.04      -1.58
H      26.09      18.30      -2.03
H      26.42      14.79       0.47
C      24.65      17.64       1.00
H      20.99      14.09       4.42
H      23.99      18.12       1.71
H      21.29      15.82       4.42
H      31.17      17.49       8.64
C      26.72      14.15       7.12
C      28.69      15.30       7.83
H      27.39      13.77       6.33
C      31.50      15.44       8.06
C      30.71      16.56       8.33
H      26.66      13.38       7.90
C      29.32      16.49       8.23
H      32.58      15.48       8.12
C      31.65      12.99       7.48
H      28.70      17.36       8.44
C      30.88      14.24       7.71
H      20.16      11.00       6.46
H      24.73      17.22       3.61
H      18.75      14.93       7.54
C      24.17      15.39       4.60
H      23.15      16.58       3.11
H      16.39      14.09       7.49
H      15.93      11.72       6.81
C      24.17      16.30       3.41
H      29.05      13.20       7.33
H      24.94      13.30       8.89
H      23.22      12.99       8.64
C      24.39      19.66      -0.37
O      31.02      11.92       7.17
O      32.94      12.98       7.58
C      29.48      14.16       7.59
O      27.33      15.34       7.70
H      24.44      11.87       7.97
O      24.82      15.59       2.30
O      23.96      20.28       0.69
O      20.83      13.62       6.98
O      18.65       8.94       6.47
O      16.63       9.60       5.60
H      27.53      15.45       5.17
H      26.65      16.05       3.77
O      24.22      20.20      -1.50
H      26.66      16.97       5.29
H      21.91      14.81       3.10
