69

C      28.24      15.50      12.01
C      29.57      15.86      12.20
C      30.60      15.01      11.75
C      30.29      13.82      11.11
C      28.63      12.20      10.20
C      35.03      16.02      11.31
C      36.27      16.49      11.79
C      36.70      16.18      13.10
C      35.84      15.46      13.94
C      32.98      14.58      11.58
H      26.88      14.00      11.23
H      27.45      16.16      12.37
H      29.84      16.80      12.68
H      31.05      13.15      10.71
H      32.99      14.50      10.49
H      32.81      13.57      11.98
C      34.63      14.92      13.45
C      34.52      16.44       9.95
C      37.10      17.42      10.96
H      34.89      15.79       9.14
H      34.83      17.46       9.70
H      33.43      16.42       9.92
C      36.19      15.28      15.39
H      37.95      17.53      14.26
H      38.74      16.89      12.82
H      38.17      17.17      10.99
H      36.80      17.44       9.90
H      38.51      15.85      14.22
C      37.21      13.64      16.81
H      36.82      16.10      15.76
H      35.29      15.26      16.00
H      38.43      18.86       9.26
H      36.51      21.08      12.42
C      36.87      14.38      17.95
C      37.46      19.83      10.95
H      38.14      11.83      16.07
H      36.35      15.33      17.86
C      37.21      13.90      19.22
H      38.16      12.33      20.35
H      36.90      14.46      20.10
C      38.93      10.64      18.38
C      34.25      15.17      12.12
C      38.51      22.22       9.90
C      37.70      22.24      11.04
H      38.88      23.13       9.46
H      37.42      23.19      11.50
C      37.90      12.71      19.37
C      39.43      20.96       7.96
C      33.78      14.10      14.39
C      37.90      12.42      16.95
C      28.94      13.46      10.92
H      33.36      14.73      15.19
C      38.04      16.64      13.62
H      34.38      13.32      14.88
O      29.59      11.45       9.84
O      27.38      11.93       9.97
H      32.93      13.62      13.89
O      31.88      15.44      11.99
O      36.90      18.74      11.55
O      36.91      14.01      15.53
O      39.07      10.26      19.61
C      38.77      20.99       9.28
O      39.57      19.85       7.34
O      39.78      22.04       7.37
C      38.24      11.96      18.23
O      39.31      10.01      17.35
C      38.25      19.79       9.80
C      37.18      21.07      11.56
C      27.91      14.30      11.38
