69

C      22.80      30.26      15.82
C      25.68      32.68      16.37
C      22.87      32.33      17.23
C      26.77      30.94      14.30
C      22.59      28.06      14.61
C      25.24      28.57      13.46
C      23.54      31.36      16.29
C      26.12      26.75       9.70
C      25.86      27.31      10.96
C      24.14      28.68       9.94
C      27.30      25.88       9.54
C      21.35      30.13      16.20
C      20.02      29.32      18.03
C      19.94      28.64      19.25
C      18.70      28.49      19.88
C      17.54      29.03      19.30
C      17.63      29.72      18.10
C      18.86      29.85      17.44
C      18.62      27.81      21.21
C      24.86      28.27      11.08
O      28.36      35.68      19.22
O      28.52      37.89      18.77
O      25.34      33.85      15.57
O      24.51      28.90      12.24
O      21.27      29.43      17.47
O      17.44      27.86      21.76
O      19.65      27.26      21.70
O      28.05      25.62      10.56
O      27.68      25.46       8.39
H      27.09      38.64      16.89
H      25.59      38.30      14.91
H      24.81      36.00      14.32
C      25.39      27.13       8.57
C      24.40      28.11       8.70
H      27.04      34.42      17.66
C      24.87      31.52      15.86
H      26.76      32.50      16.30
H      25.46      32.89      17.43
H      22.07      32.89      16.72
H      22.41      31.80      18.07
H      23.57      33.08      17.63
H      27.59      30.43      14.83
H      26.83      30.62      13.25
H      26.98      32.01      14.31
H      21.86      28.27      13.82
H      23.23      27.24      14.25
H      22.04      27.67      15.47
H      25.07      27.52      13.71
H      26.31      28.71      13.30
H      26.48      27.03      11.80
H      20.78      29.59      15.44
H      20.90      31.13      16.31
H      20.84      28.24      19.71
H      16.58      28.92      19.82
H      16.74      30.17      17.67
H      18.90      30.38      16.49
H      23.40      29.47      10.05
H      25.64      26.71       7.60
H      23.87      28.47       7.83
C      27.13      36.54      17.38
C      26.74      37.65      16.62
C      25.90      37.45      15.52
C      25.45      36.17      15.18
C      25.84      35.06      15.96
C      26.69      35.25      17.06
C      28.06      36.70      18.53
C      25.42      30.64      14.91
C      24.69      29.51      14.51
C      23.38      29.29      14.99
