69

C      14.29       9.85      28.87
C      13.67       8.49      28.89
C      13.33       7.86      27.68
C      12.81       6.56      27.70
C      12.55       5.92      28.92
C      12.87       6.56      30.12
C      13.45       7.83      30.11
C      13.06       6.30      25.31
C      13.01       5.19      24.29
C      12.04       5.22      23.26
C      10.91       6.22      23.34
C      12.16       4.33      22.18
C      13.18       3.35      22.17
C      13.34       2.41      21.00
C      13.99       4.18      24.33
C      14.94       4.05      25.50
C      17.08       1.64      21.99
C      17.93       1.92      20.90
C      18.90       1.00      20.51
C      19.07      -0.20      21.20
C      18.21      -0.49      22.27
C      17.20       0.42      22.65
C      11.36       4.53      20.92
C      10.19       3.24      19.28
C      10.45       4.20      18.30
C       9.50       2.76      16.59
C       9.20       1.81      17.58
C      10.11       3.96      16.96
C       9.54       2.05      18.91
C      14.06       3.26      23.26
C      10.38       5.04      15.97
C      15.11       2.18      23.25
H      13.49       8.40      26.75
H      12.13       4.92      28.90
H      12.67       6.06      31.06
C      18.30      -1.74      23.04
H      13.73       8.33      31.04
H      12.49       7.18      24.98
H      14.10       6.62      25.47
H      10.03       5.88      22.78
H      10.60       6.38      24.38
H      11.21       7.20      22.91
H      12.95       2.83      20.07
H      14.38       2.14      20.83
O      10.07       4.88      14.72
H      12.77       1.48      21.18
O      16.18       2.61      22.35
O      17.25      -2.12      23.72
O      10.54       3.36      20.60
H      15.97       3.89      25.18
H      14.93       4.94      26.14
H      14.64       3.20      26.13
O      12.52       5.82      26.58
O      14.01      10.62      27.90
O      15.09      10.11      29.85
H      12.07       4.68      20.10
H      10.72       5.41      20.97
H      10.91       5.16      18.53
H       9.31       1.33      19.69
H       9.26       2.57      15.55
H       8.71       0.88      17.32
H      14.70       1.23      22.88
H      15.52       2.00      24.25
O      19.36      -2.43      23.14
H      17.82       2.88      20.39
H      19.54       1.23      19.66
H      19.84      -0.91      20.93
H      16.55       0.15      23.48
O      10.93       6.12      16.37
