200

Cu       6.31       9.76       4.52
Cu       5.58       3.35      13.65
Cu       0.65       3.35      13.61
Cu      11.25       9.75       4.56
H       8.91       3.77      16.09
H       7.04       2.98      16.26
H       8.98       0.47       1.30
H       7.34       0.24      14.39
H       4.05       0.48       7.83
H       4.85       9.40       8.93
H       8.73       6.56      14.30
H       5.24       2.36       8.97
H       3.42      10.37       8.95
H       9.76       9.32       0.13
H       3.16       6.55       3.87
H       3.44      11.64       5.61
H       8.64       1.74       6.40
H       7.87       6.59      10.52
H       6.65       8.90      18.16
H       6.83       1.45       0.09
H       7.92       9.40       7.01
H       2.08       2.97      10.96
H       1.59       6.01       7.91
H       6.71       0.11       1.59
H       4.02       6.52       7.66
H       1.92       1.49       8.97
H       8.45       1.46      12.56
H       5.25       4.21       0.01
H       9.90       8.45      15.38
H       8.96       5.24      18.11
H       7.65       5.09      12.43
H       8.18      11.37      15.49
H       8.31      10.28       0.14
H      10.21       4.20       9.08
H       2.45       0.24      12.85
H      10.30       7.09      10.26
H       4.24       8.02       5.75
H       8.92       6.50       1.41
H       4.02       5.17       9.14
H       5.18      12.99      16.58
H       8.48       2.74       9.22
H       4.85      10.13       1.91
H       2.94       7.87       0.06
H       4.95       8.42      11.85
H       3.26      11.36      11.78
H       3.52       1.49      14.71
H       4.55      12.87       3.78
H       2.13       3.78      18.04
H       6.48       6.03       1.19
H       6.94       4.69       6.32
H       7.04       3.71       9.24
H       3.97       3.71      11.16
H      10.12      12.94      10.72
H       3.58       2.82      18.03
H       8.12       6.57       5.24
H       7.88       7.93       9.03
H       9.44      12.87       5.32
H       7.84      12.63      10.34
H       3.77       6.54      12.93
H       1.74      10.78      18.04
H       9.81      10.13       7.21
H       1.69       8.90       9.09
H       5.42       7.07      16.98
H       9.97      11.61       9.20
H       5.07      11.66      18.08
H       1.78       0.16       7.46
H       2.98       6.60      16.76
H       2.99       9.34       2.08
H       3.71       1.73       2.68
H      10.16       2.33       0.14
H       6.65      10.75       9.20
H       2.91      12.64      16.87
H       2.75       5.10      14.84
H       9.14       8.00       3.33
H       8.37      11.61       3.46
H       1.99       4.66       2.79
C       4.14       9.87       9.61
C       8.93       8.15      15.75
C       4.26       1.45      15.50
C       7.80      12.52       1.59
C       7.09       8.40      17.30
C       1.44       7.38      10.59
C       5.49       5.73       1.52
C       5.68      10.82       1.78
C       2.02      11.89       3.18
C       5.69       0.04       6.53
C       6.41       7.37      16.66
C       7.09       8.73       7.21
C       4.09       0.59      16.58
C       7.00       6.69      15.58
C       5.78      11.64       0.67
C       2.09       2.16       1.32
C       6.83      12.33      10.64
C       6.24       5.55      14.96
C       4.93       7.10       7.57
C       6.85      12.56       0.57
C       6.96       6.01      10.60
C       7.76       3.24       8.56
C       0.79       1.80       0.95
C       9.09       9.87      17.64
C      10.88       6.98       0.57
C      10.46       5.73       7.58
C       8.59       6.04       6.07
C       2.87      12.56       7.48
C       3.40       8.80      10.39
C       9.83      12.72      15.18
C       2.03       6.68      11.66
C       2.06       6.03      16.66
C       3.96       8.13      11.49
C       2.13       8.41       9.96
C       2.15       8.68       1.88
C       9.19      11.64      15.80
C       9.77       4.70       8.22
C       9.79       5.26      17.41
C       4.95       1.21      12.24
C       4.80       4.71       0.87
C       9.18       1.42      11.76
C       4.84       5.20       9.85
C       4.91      12.70      12.06
C       2.06       0.39       2.99
C       4.90       6.41       2.59
C       5.06       0.77       7.54
C       3.53       4.30       1.31
C       9.87       6.42       6.52
C       0.77       0.02       2.59
C       6.17      11.28      10.01
C      11.12      13.09      15.58
C       2.10       7.85       0.76
C       7.02       2.18       7.77
C       2.97       4.96       2.42
C       6.11       1.46      17.50
C      10.63       7.55       5.90
C       9.94       7.93       2.60
C       2.71      11.68       6.41
C       7.63       1.48       6.72
C       1.26       5.55      12.27
C      11.77      12.35      16.59
C       5.65       7.55       3.21
C       7.05       7.90       8.32
C       6.94      11.90       5.93
C       3.63       6.02       3.04
C       6.22       2.29      16.39
C       5.72       1.82       8.16
C       1.95       5.18      15.57
C       6.98       0.40       6.12
C       4.87      10.92      10.40
C       1.16       1.43       9.74
C       0.13       0.75       1.59
C       5.97       7.02       8.51
C       9.02       0.55      10.70
C       5.05       0.55      17.61
C       8.49       4.31       7.79
C       8.26       7.08      15.13
C       9.95       0.51       9.65
C       7.93       4.97       6.68
C       3.30       7.07      12.11
C       9.87       1.21      14.99
C       9.74       4.43      16.29
C       7.64      11.65       2.67
C       1.02       6.12      17.60
C       5.04       7.95       6.48
C      11.11      11.30      17.22
C       4.80       4.38      10.97
C       4.26      11.63      11.45
C       2.81       3.23       0.54
C       9.81      10.94      16.85
C       1.94      12.59       8.52
C      10.63      10.84       7.32
C       6.85       5.15      11.69
C       2.70       1.46       2.37
C       5.92       6.08       9.66
C       1.27       2.27      10.85
C      10.74      11.67       8.43
C       9.84       7.07       1.51
C       6.20      13.07      11.64
C       8.36       8.80      16.86
N       6.12       8.73       6.27
N       0.38       2.26      11.87
N       6.57      10.83       2.79
N       5.32       2.27      15.38
N      11.51      10.85       6.31
N       5.77       4.38      11.90
N      11.03       8.70       2.81
N       0.86       4.40      15.37
O       5.69      11.84       5.93
O       6.90       7.57       3.23
O      10.63      11.87       3.18
O       2.76      10.93       3.67
O       4.21       2.15      12.76
O       7.68      10.96       5.41
O       6.20       1.26      12.25
O       2.02       7.54       5.88
O       1.98       4.57      12.74
O       6.96       4.56      14.49
O       4.94       8.54       3.68
O       1.26       1.24      14.99
O       4.99       5.54      14.94
O       9.13       2.17      14.50
O       9.87       5.57      12.30
O       9.91       8.54       5.43
