924

H      28.87      45.09      14.78
H      26.78      46.00      14.26
H      22.14      45.99      14.15
H      20.05      45.10      14.66
H      24.38      42.58      17.49
H      24.44      45.75      14.97
H      24.48      45.35      13.23
H      12.47      34.60      31.37
H      10.38      33.69      31.89
H       5.73      33.69      32.01
H       3.64      34.59      31.51
H       5.34      38.41      30.96
H      10.74      38.42      30.91
H       8.13      36.92      34.22
H       7.98      37.10      28.67
H       7.69      41.04      27.16
H       8.04      33.94      31.19
H       8.09      34.34      32.93
H       3.57      44.71      14.24
H       5.67      44.55      13.18
H      10.40      44.47      13.17
H      12.52      44.69      14.16
H      10.77      46.06      17.74
H       5.41      46.06      17.78
H       8.20      47.97      14.84
H       8.05      43.41      17.57
H       7.99      43.73      21.76
H       8.03      43.82      13.91
H       8.06      45.46      13.21
H      19.96      34.99      31.92
H      22.07      35.15      32.98
H      26.80      35.19      33.00
H      28.93      34.99      32.00
H      24.47      36.27      28.60
H      24.44      35.86      32.26
H      24.46      34.22      32.96
H      24.45      39.51      26.69
H      25.84      40.06      20.35
H       7.99      41.55      24.60
H       9.45      39.63      25.80
H      31.33      45.44      15.15
H       3.21      42.30      16.32
H       2.34      44.86      18.42
H      14.91      34.25      31.03
H      19.61      37.37      29.83
H      14.08      36.43      32.27
H       1.18      34.21      30.94
H      29.33      37.38      29.90
H       1.97      36.38      32.27
H      17.57      45.49      15.22
H      12.92      42.30      16.27
H      13.43      44.51      18.27
H      21.74      41.28      15.21
H      27.14      41.26      15.26
H      24.53      42.77      11.94
H      24.23      37.78      16.84
H      24.10      38.65      19.00
H      27.15      33.64      28.41
H      21.81      33.63      28.39
H      24.60      31.71      31.32
H      24.39      33.59      24.58
H      24.40      35.96      24.41
H      24.41      38.14      21.57
H       7.52      37.23      19.40
H       7.99      40.18      19.47
H      30.48      43.26      13.90
H      18.74      34.84      27.75
H      29.92      35.08      27.84
H      18.38      43.32      13.90
H      24.99      28.18      33.14
H      24.83      38.95      10.17
H      24.69      37.94      12.26
H      23.56      38.32      14.51
H      25.34      38.30      14.63
H      24.51      28.16      29.09
H      24.39      29.43      27.07
H      25.27      31.69      26.12
H      23.50      31.72      26.17
H      22.85      40.89       9.10
H      26.27      25.91      32.92
H      26.28      40.78       5.04
H      22.66      38.38       9.00
H      24.99      39.84       2.96
H      28.86     -13.62      47.88
H      26.78     -14.53      47.36
H      22.14     -14.60      47.41
H      20.04     -13.71      47.93
H      21.75      17.76       0.58
H      27.15      17.81       0.55
H      24.53      14.19       0.92
H      24.83      14.56       5.11
H      24.69      16.88       4.94
H      24.38     -10.01      48.70
H      24.23      20.93       2.79
H      24.10      22.36       0.96
H      24.44     -13.78      47.22
H      24.48     -15.08      48.44
H      23.56      18.63       3.49
H      25.34      18.75       3.45
H      28.86      15.31      31.79
H      26.78      15.32      32.83
H      22.13      15.40      32.87
H      20.04      15.41      31.83
H      21.75      16.86      28.26
H      27.15      16.80      28.23
H      24.53      18.93      31.19
H      24.83      22.37      28.76
H      24.69      21.07      26.84
H      24.38      14.22      28.25
H      24.23      17.18      24.41
H      24.10      14.88      24.09
H      24.44      14.83      32.25
H      24.48      16.53      32.77
H      23.56      18.93      26.05
H      25.34      18.84      25.97
H       8.42     -17.45      35.99
H       8.28     -16.44      33.90
H       7.82     -16.28      29.32
H       7.15     -16.82      31.65
H       8.93     -16.80      31.53
H      12.46       6.01      48.67
H      10.38       6.91      49.20
H       5.73       7.01      49.14
H       3.64       6.13      48.61
H       5.34       3.74      45.58
H      10.74       3.69      45.59
H       8.13       7.31      45.24
H       8.43       6.94      41.05
H       8.28       4.63      41.22
H       7.98       2.42      47.85
H       7.82       0.58      43.37
H       7.70      -0.86      45.20
H       8.04       6.18      49.33
H       8.08       7.49      48.12
H       7.15       2.87      42.67
H       8.93       2.75      42.71
H      12.46       6.19      14.40
H      10.38       6.20      13.35
H       5.73       6.09      13.29
H       3.64       6.08      14.32
H       5.34       4.64      17.90
H      10.74       4.67      17.94
H       8.12       2.57      14.97
H       8.43      -0.88      17.39
H       8.28       0.43      19.32
H       7.97       7.27      17.91
H       7.82       4.31      21.75
H       7.69       6.61      22.07
H       8.04       6.67      13.91
H       8.08       4.97      13.39
H       7.15       2.56      20.11
H       8.93       2.65      20.19
H       3.59      16.05      31.79
H       5.72      17.01      32.06
H      10.41      16.99      32.06
H      12.53      16.02      31.73
H      10.73      12.25      31.11
H       5.34      12.26      31.17
H       8.18      13.82      34.24
H       8.11      10.10      36.20
H       7.99       9.00      34.09
H       8.03      13.74      28.93
H       8.00       8.91      29.25
H       8.00       9.95      27.11
H       8.06      16.70      31.08
H       8.06      16.50      32.85
H       8.87       9.31      31.66
H       7.10       9.35      31.66
H       3.59     -13.98      48.51
H       5.71     -14.71      49.20
H      10.40     -14.68      49.21
H      12.52     -13.94      48.52
H      10.75     -11.51      45.56
H       5.35     -11.54      45.55
H       8.18     -14.99      45.36
H       8.11     -14.84      41.16
H       7.99     -12.46      41.26
H       8.03     -10.36      47.94
H       8.00      -8.22      43.60
H       8.00      -6.88      45.57
H       8.05     -13.69      49.43
H       8.06     -15.13      48.38
H       8.87     -10.51      42.74
H       7.10     -10.53      42.77
H       8.11      -6.66      17.08
H       7.99      -7.93      19.09
H       8.00     -12.09      21.59
H       8.88     -10.19      20.04
H       7.10     -10.22      20.00
H      19.95       5.57      14.51
H      22.05       4.54      14.08
H      26.80       4.47      14.12
H      28.92       5.43      14.43
H      27.18       9.23      15.02
H      21.85       9.29      15.04
H      24.62       7.68      11.92
H      24.51      11.39       9.96
H      24.39      12.50      12.07
H      24.48       7.76      17.23
H      24.40      12.58      16.91
H      24.40      11.55      19.06
H      24.42       4.79      15.04
H      24.46       5.01      13.27
H      25.28      12.20      14.50
H      23.51      12.13      14.50
H      19.98       6.33      48.06
H      22.09       7.13      47.39
H      26.80       7.10      47.33
H      28.92       6.36      48.02
H      27.16      33.02       0.60
H      21.80      33.00       0.61
H      24.60      36.50       0.80
H      24.51      36.34       5.00
H      24.39      33.96       4.91
H      24.46       2.77      48.61
H      24.40      29.72       2.56
H      24.40      28.38       0.59
H      24.44       6.12      47.13
H      24.47       7.55      48.19
H      25.27      32.01       3.43
H      23.50      32.03       3.38
H      23.86      42.47      26.74
H      24.41      24.83       0.12
H      23.86      -1.94      44.18
H      24.44      -0.51      46.76
H      25.85      -6.27      49.45
H      24.41      12.92      22.37
H      23.86       6.27      23.53
H      24.44       7.80      20.99
H      25.85      13.00      24.64
H       7.99      -3.34      46.04
H       7.52      23.41       1.99
H       8.00      -7.09      49.79
H       9.44      -1.33      47.09
H       7.99       8.58      23.81
H       7.52      15.25      22.67
H       8.00      13.71      25.18
H       9.43       8.49      21.54
H      31.34     -13.41      47.33
H       3.19     -10.93      49.55
H       2.68     -10.31      46.64
H      30.50     -13.45      49.85
H      31.34      14.72      31.88
H       3.18      15.44      28.62
H       2.72      12.62      29.53
H      30.50      16.93      30.65
H      14.92       5.86      49.17
H      19.60       3.31      47.02
H      18.82       2.74      50.23
H      14.08       5.86      46.66
H      14.91       6.64      14.27
H      19.62       6.13      17.57
H      18.59       9.27      16.33
H      14.07       4.48      15.53
H       1.17       5.82      49.24
H      29.34       3.35      46.98
H      29.84       2.70      49.94
H       1.97       5.89      46.70
H       1.18       6.76      14.27
H      29.33       6.07      17.54
H      29.84       8.91      16.63
H       1.98       4.53      15.48
H      17.57     -13.43      47.33
H      12.91     -10.93      49.55
H      13.46     -10.29      46.61
H      18.39     -13.49      49.86
H      17.58      14.77      31.90
H      12.91      15.40      28.61
H      13.54      12.46      29.59
H      18.38      16.98      30.68
H      26.27       9.20       6.09
H      22.67      13.84       6.19
H      22.85      12.66       3.97
H      24.99       7.87       7.95
H      22.67      23.67      28.85
H      22.85      22.34      30.97
H       9.87     -19.28      41.13
H       6.26     -16.88      37.16
H       6.45     -19.39      37.06
H       8.58     -18.34      43.20
H       9.87      12.29      40.06
H       6.26       7.66      39.99
H       6.44       8.85      42.20
H       8.58      13.62      38.21
H       9.87      -4.41      13.25
H       6.26      -2.15      17.30
H       6.44      -0.84      15.17
H       8.58      -6.67      13.03
C      25.69      44.18      14.46
C      23.22      44.18      14.40
C      22.08      44.98      14.32
C      20.84      44.45      14.61
C      20.69      43.08      14.92
C      28.21      43.07      15.01
C      28.07      44.44      14.73
C      26.84      44.99      14.43
C      24.46      44.92      14.24
C       8.01      38.61      30.18
C       7.98      40.02      30.31
C       8.10      38.52      32.80
C       8.15      37.93      34.12
C       7.87      40.89      29.21
C       7.80      40.37      27.93
C       7.91      38.98      27.69
C       7.97      38.11      28.83
C       9.34      36.90      31.42
C       9.29      35.51      31.69
C       6.82      35.51      31.76
C       6.76      36.91      31.49
C       5.67      34.70      31.84
C       4.43      35.24      31.56
C       4.29      36.61      31.25
C       5.45      37.43      31.22
C      10.64      37.44      31.15
C      11.81      36.62      31.15
C      11.67      35.24      31.43
C      10.44      34.70      31.72
C       8.05      37.74      31.46
C       8.06      34.76      31.92
C       8.06      45.42      18.27
C       8.04      46.18      19.46
C       8.08      47.64      16.94
C       8.14      48.44      15.75
C       8.02      45.55      20.73
C       8.01      44.15      20.83
C       8.02      43.36      19.68
C       8.05      44.00      18.41
C       6.78      45.71      16.18
C       6.81      45.21      14.85
C       9.30      45.16      14.86
C       9.36      45.68      16.18
C      10.45      44.85      14.13
C      11.71      44.99      14.70
C      11.82      45.40      16.04
C      10.66      45.77      16.77
C       5.50      45.79      16.79
C       4.32      45.41      16.10
C       4.40      45.03      14.75
C       5.64      44.92      14.13
C       8.08      46.10      16.90
C       8.05      44.89      14.15
C      24.46      35.69      27.76
C      23.21      34.48      31.31
C      25.70      34.51      31.31
C      26.86      34.82      32.04
C      28.11      34.68      31.46
C      28.22      34.28      30.12
C      20.79      34.66      31.41
C      22.03      34.77      32.03
C      24.45      34.79      32.02
C      24.44      39.35      24.64
C      24.42      38.86      22.28
C      24.63      40.22      21.95
C      24.61      40.73      24.31
C      24.75      41.75      25.24
C      24.43      38.85      25.95
C      25.04      40.57      20.67
C       8.02      40.33      21.53
C       8.01      40.82      23.88
C       8.23      39.47      24.21
C       7.99      40.83      20.21
C       8.65      39.12      25.49
C       1.08      44.31      16.87
C      31.92      44.74      15.61
C      31.61      43.36      15.56
C       0.80      42.91      16.81
C       1.65      41.95      17.33
C       2.21      44.86      17.44
C      17.48      35.37      29.30
C      15.50      34.95      30.56
C      15.20      36.33      30.61
C      17.20      36.77      29.36
C      18.05      37.73      28.83
C      14.12      36.78      31.34
C      31.43      35.37      29.23
C       0.59      34.91      30.49
C       0.89      36.29      30.57
C      31.71      36.76      29.33
C      30.86      37.75      28.85
C       1.96      36.72      31.33
C      15.02      44.32      16.95
C      16.99      44.78      15.68
C      17.29      43.40      15.59
C      15.30      42.93      16.84
C      14.45      41.94      17.31
C      13.82      44.83      17.42
C      24.41      41.08      15.98
C      24.38      39.66      15.85
C      24.53      39.75      13.38
C      24.50      41.17      13.36
C      24.55      41.76      12.04
C      24.63      40.96      10.85
C      24.27      38.80      16.95
C      24.20      39.32      18.23
C      24.31      40.70      18.47
C      24.37      41.58      17.33
C      25.74      42.78      14.74
C      23.16      42.78      14.67
C      21.85      42.26      14.94
C      27.04      42.25      15.01
C      24.45      41.95      14.70
C      24.45      38.95      14.59
C      24.46      34.27      27.90
C      24.43      33.51      26.70
C      24.43      31.35      28.00
C      24.48      32.05      29.23
C      24.54      31.25      30.41
C      24.55      29.83      30.39
C      24.41      34.14      25.44
C      24.42      35.54      25.33
C      24.43      36.33      26.49
C      23.18      33.98      29.98
C      25.76      34.00      29.98
C      27.06      33.92      29.39
C      21.89      33.89      29.37
C      20.72      34.28      30.07
C      24.47      33.58      29.26
C      24.40      32.03      26.69
C       8.20      38.95      21.86
C       8.36      37.93      20.92
C      30.53      42.92      14.83
C      18.60      34.82      28.73
C      30.25      34.85      28.75
C      18.36      42.97      14.83
C      24.72      39.57      10.99
C      24.65      38.97      12.22
C      24.48      29.18      29.14
C      24.42      29.93      27.97
C      23.99      40.59       7.42
C      23.73      41.12       8.70
C      25.44      25.68      32.37
C      24.64      26.69      31.80
C      24.79      28.03      32.18
C      25.45      40.41       5.51
C      24.64      39.42       4.91
C      23.17      39.58       6.82
C      22.00      39.10       7.38
C      23.99      23.94      31.56
C      23.17      24.96      30.98
C      22.00      24.72      30.27
C      24.79      39.08       3.57
C      24.42      18.53       0.36
C      24.38      19.13       1.65
C      24.53      16.95       2.81
C      24.51      16.21       1.59
C      24.55      14.78       1.75
C      24.63      14.14       3.03
C      24.73      14.96       4.17
C      24.65      16.33       4.07
C      24.27      20.51       1.85
C      24.20      21.36       0.76
C      24.31      -8.22      49.84
C      24.37      -9.64      49.65
C      25.74     -12.49      49.90
C      25.69     -13.43      48.83
C      23.22     -13.48      48.86
C      23.16     -12.54      49.93
C      22.07     -13.95      48.20
C      20.84     -13.43      48.52
C      20.69     -12.47      49.54
C      21.85     -12.05      50.25
C      27.05     -11.99      50.21
C      28.21     -12.41      49.51
C      28.07     -13.34      48.47
C      26.84     -13.87      48.15
C      24.46      16.99       0.25
C      24.46     -14.00      48.30
C      24.45      18.39       2.90
C      24.42      16.28      27.70
C      24.38      17.10      26.54
C      24.54      19.19      27.85
C      24.51      18.50      29.09
C      24.55      19.35      30.26
C      24.63      20.78      30.17
C      24.73      21.36      28.89
C      24.65      20.59      27.75
C      24.28      16.57      25.24
C      24.21      15.21      25.05
C      24.31      14.31      26.13
C      24.37      14.86      27.46
C      25.74      16.50      29.80
C      25.69      16.05      31.15
C      23.22      16.10      31.17
C      23.16      16.56      29.83
C      22.07      15.75      31.91
C      20.83      15.78      31.30
C      20.69      16.19      29.96
C      21.85      16.59      29.24
C      27.05      16.52      29.21
C      28.21      16.11      29.92
C      28.07      15.68      31.25
C      26.83      15.67      31.87
C      24.46      16.95      29.10
C      24.46      15.87      31.90
C      24.45      18.55      26.55
C       8.13     -18.25      32.78
C       8.22     -19.46      35.31
C       8.32     -18.07      35.17
C       8.24     -17.47      33.94
C       8.04     -17.45      31.57
C       8.01       2.97      45.79
C       7.98       2.38      44.50
C       8.13       4.56      43.34
C       8.10       5.29      44.56
C       8.15       6.72      44.41
C       8.22       7.36      43.13
C       8.32       6.54      41.99
C       8.24       5.17      42.09
C       7.87       0.99      44.31
C       7.80       0.14      45.39
C       7.91       0.63      46.71
C       7.97       2.05      46.90
C       9.34       4.90      46.65
C       9.29       5.83      47.72
C       6.82       5.89      47.68
C       6.76       4.95      46.62
C       5.67       6.36      48.35
C       4.43       5.85      48.02
C       4.29       4.89      47.00
C       5.45       4.46      46.30
C      10.64       4.39      46.33
C      11.81       4.80      47.04
C      11.67       5.73      48.09
C      10.43       6.26      48.41
C       8.05       4.52      45.91
C       8.06       6.40      48.25
C       8.05       3.11      43.25
C       8.01       5.21      18.46
C       7.98       4.40      19.62
C       8.13       2.30      18.31
C       8.10       2.99      17.07
C       8.15       2.14      15.90
C       8.22       0.71      15.99
C       8.32       0.13      17.27
C       8.24       0.90      18.41
C       7.87       4.92      20.92
C       7.80       6.28      21.11
C       7.90       7.18      20.03
C       7.96       6.63      18.71
C       9.34       4.99      16.36
C       9.29       5.46      15.02
C       6.82       5.40      14.99
C       6.76       4.94      16.33
C       5.67       5.74      14.25
C       4.43       5.72      14.86
C       4.28       5.31      16.19
C       5.45       4.91      16.92
C      10.64       4.96      16.96
C      11.81       5.37      16.25
C      11.67       5.82      14.93
C      10.43       5.84      14.31
C       8.05       4.54      17.07
C       8.06       5.63      14.26
C       8.05       2.94      19.61
C       8.03      12.13      30.32
C       8.02      10.71      30.38
C       8.02      10.76      32.90
C       8.06      12.17      32.90
C       8.12      12.80      34.19
C       8.14      12.06      35.41
C       8.08      10.66      35.35
C       8.01      10.02      34.11
C       8.01       9.93      29.20
C       8.01      10.54      27.94
C       8.01      11.94      27.83
C       8.02      12.72      29.02
C       6.76      13.80      31.61
C       6.82      15.20      31.81
C       9.29      15.20      31.80
C       9.34      13.79      31.58
C      10.46      15.98      31.91
C      11.71      15.40      31.73
C      11.80      14.05      31.39
C      10.64      13.24      31.35
C       5.45      13.25      31.40
C       4.29      14.07      31.46
C       4.41      15.43      31.78
C       5.66      16.00      31.92
C       8.05      12.97      31.59
C       8.06      15.96      31.90
C       8.00       9.97      31.65
C       8.03     -10.75      45.86
C       8.02     -10.10      44.60
C       8.02     -12.30      43.38
C       8.06     -13.01      44.60
C       8.12     -14.44      44.50
C       8.14     -15.13      43.26
C       8.08     -14.38      42.07
C       8.01     -12.98      42.14
C       8.01      -8.69      44.51
C       8.01      -7.90      45.67
C       8.01      -8.50      46.93
C       8.03      -9.92      47.01
C       6.76     -12.70      46.65
C       6.81     -13.58      47.77
C       9.29     -13.56      47.78
C       9.34     -12.68      46.67
C      10.45     -14.04      48.41
C      11.70     -13.62      47.99
C      11.81     -12.66      46.97
C      10.65     -12.21      46.29
C       5.45     -12.25      46.28
C       4.29     -12.70      46.96
C       4.40     -13.66      47.98
C       5.66     -14.07      48.40
C       8.05     -12.28      45.95
C       8.05     -14.03      48.39
C       8.00     -10.83      43.32
C       8.03      -9.85      18.17
C       8.15      -8.33      15.78
C       8.08      -7.68      17.02
C       8.02      -8.43      18.20
C       8.01     -10.53      19.47
C      24.48       9.36      15.84
C      24.45      10.78      15.78
C      24.44      10.74      13.26
C      24.50       9.32      13.26
C      24.56       8.70      11.97
C      24.56       9.43      10.75
C      24.49      10.83      10.81
C      24.43      11.48      12.05
C      24.42      11.56      16.96
C      24.42      10.96      18.22
C      24.44       9.56      18.33
C      24.47       8.78      17.14
C      23.20       7.71      14.55
C      23.21       6.31      14.32
C      25.70       6.28      14.36
C      25.77       7.69      14.58
C      26.86       5.49      14.27
C      28.11       6.05      14.44
C      28.23       7.41      14.75
C      27.07       8.24      14.79
C      21.92       8.30      14.78
C      20.74       7.52      14.79
C      20.79       6.16      14.46
C      22.02       5.56      14.23
C      24.49       8.53      14.57
C      24.45       5.54      14.24
C      24.42      11.53      14.51
C      24.46      32.25       0.31
C      24.43      31.60       1.57
C      24.43      33.80       2.79
C      24.48      34.52       1.56
C      24.54      35.94       1.66
C      24.55      36.63       2.91
C      24.48      35.88       4.09
C      24.42      34.48       4.03
C      24.41      30.19       1.65
C      24.42      29.40       0.50
C      24.43       0.91      49.62
C      24.45       2.33      49.54
C      23.18       5.11      49.91
C      23.22       6.01      48.80
C      25.70       5.98      48.77
C      25.76       5.09      49.88
C      26.86       6.46      48.14
C      28.11       6.05      48.56
C      28.22       5.08      49.57
C      27.06       4.63      50.26
C      21.89       4.63      50.28
C      20.72       5.06      49.60
C      20.80       6.03      48.60
C      22.05       6.50      48.19
C      24.47      33.78       0.22
C      24.46       6.46      48.17
C      24.41      32.33       2.84
C      24.44      -2.21      47.93
C      24.43      -4.00      49.52
C      24.63      -4.97      48.51
C      24.61      -3.18      46.90
C      24.75      -2.88      45.55
C      24.42      -0.82      47.70
C      25.05      -6.25      48.85
C      24.44       9.65      21.88
C      24.43      11.93      22.64
C      24.63      11.54      23.98
C      24.61       9.25      23.24
C      24.75       7.93      23.65
C      24.42       8.76      20.79
C      25.05      12.47      24.92
C       8.02      -5.39      48.63
C       8.01      -3.60      47.03
C       8.23      -2.63      48.03
C       8.20      -4.41      49.66
C       8.36      24.38       0.62
C       7.99      -6.78      48.85
C       8.64      -1.35      47.70
C       8.02      11.85      24.28
C       8.01       9.57      23.54
C       8.23       9.96      22.19
C       8.20      12.26      22.92
C       8.36      13.57      22.51
C       7.99      12.74      25.37
C       8.64       9.02      21.25
C       1.09     -11.35      47.47
C      31.92     -12.67      47.71
C      31.61     -12.03      48.94
C       0.81     -10.74      48.72
C       1.66      -9.84      49.34
C       2.30     -11.21      46.80
C      30.54     -12.46      49.68
C       1.10      13.83      30.02
C      31.92      14.68      31.04
C      31.61      15.43      29.88
C       0.80      14.60      28.86
C       1.66      14.70      27.78
C       2.31      13.19      30.24
C      30.54      16.29      29.88
C      17.48       3.80      49.05
C      15.50       5.11      48.79
C      15.20       4.46      47.57
C      17.20       3.16      47.81
C      18.05       2.24      47.22
C      18.63       3.61      49.78
C      14.12       4.88      46.81
C      17.49       7.55      16.09
C      15.51       6.68      15.10
C      15.20       5.96      16.27
C      17.21       6.82      17.27
C      18.05       6.81      18.38
C      18.58       8.37      15.92
C      14.12       5.11      16.30
C      31.43       3.75      49.08
C       0.59       5.07      48.85
C       0.90       4.46      47.62
C      31.71       3.14      47.82
C      30.86       2.25      47.20
C      30.23       3.60      49.75
C       1.96       4.91      46.86
C      31.43       7.67      16.13
C       0.59       6.80      15.10
C       0.89       6.04      16.26
C      31.71       6.88      17.29
C      30.86       6.80      18.38
C      30.23       8.33      15.93
C       1.96       5.16      16.24
C      15.02     -11.35      47.47
C      16.99     -12.68      47.71
C      17.30     -12.06      48.94
C      15.30     -10.75      48.73
C      14.45      -9.84      49.35
C      13.83     -11.19      46.78
C      18.36     -12.51      49.70
C      15.03      13.84      30.03
C      17.00      14.72      31.06
C      17.30      15.48      29.90
C      15.31      14.62      28.88
C      14.46      14.69      27.78
C      13.86      13.14      30.24
C      18.36      16.35      29.91
C      23.99      11.36       5.07
C      25.45       9.79       6.17
C      24.64       9.77       7.33
C      23.17      11.35       6.24
C      22.00      12.08       6.39
C      23.73      12.20       3.97
C      24.80       8.78       8.30
C      23.73      22.56      31.38
C       7.58     -19.09      38.74
C       9.04     -18.92      40.65
C       8.23     -17.92      41.25
C       6.77     -18.08      39.34
C       5.59     -17.59      38.78
C       7.33     -19.62      37.46
C       8.38     -17.58      42.60
C       7.58      10.14      41.10
C       9.04      11.70      39.99
C       8.23      11.72      38.83
C       6.76      10.15      39.92
C       5.59       9.41      39.79
C       7.33       9.30      42.21
C       8.39      12.71      37.86
C       7.58      -2.43      14.60
C       9.04      -4.17      13.80
C       8.23      -5.19      14.36
C       6.77      -3.46      15.18
C       5.59      -3.21      15.88
C       7.32      -1.06      14.77
C       8.39      -6.53      13.99
N      19.49      42.80      15.44
N      24.20      40.98      19.78
N      29.42      42.77      15.48
N       3.09      36.89      30.73
N       7.80      38.70      26.38
N      13.02      36.93      30.68
N      13.04      45.15      16.47
N       8.00      42.04      19.78
N       3.19      45.10      16.66
N      29.41      34.56      29.67
N      24.43      37.65      26.40
N      24.35      38.49      23.59
N      24.74      41.08      22.99
N       7.93      41.19      22.57
N       8.34      38.61      23.17
N       0.22      45.16      16.25
N      32.49      42.51      16.15
N      16.62      34.53      29.92
N      16.08      37.18      30.02
N      32.29      34.51      29.84
N       0.02      37.16      30.00
N      15.87      45.18      16.33
N      16.42      42.54      16.16
N      24.72      29.14      31.51
N      19.58      34.58      29.50
N      24.71      41.28       9.54
N      25.11      40.94       6.72
N      23.52      26.27      31.16
N      23.52      39.08       5.60
N      25.10      24.36      32.21
N      19.49     -11.89      49.54
N      24.20      -7.23      48.94
N      24.71      12.85       3.41
N      29.42     -11.83      49.52
N      19.49      15.90      29.45
N      24.20      13.03      25.72
N      24.71      21.75      31.09
N      29.42      15.83      29.42
N       8.30     -19.78      36.62
N       3.09       4.30      47.01
N       7.80      -0.37      47.61
N       8.30       8.65      42.75
N      13.02       4.24      47.01
N       3.08       5.60      16.70
N       7.79       8.46      20.44
N       8.30      -0.26      15.06
N      13.02       5.61      16.76
N      13.00      13.78      30.92
N       8.00      12.51      26.64
N       8.31      12.69      36.57
N       3.07      13.84      31.03
N      13.02     -12.16      46.98
N       8.00      -7.76      48.02
N       8.31     -16.45      43.22
N       3.07     -12.20      46.98
N       8.32      -7.63      14.65
N      29.45       7.66      15.17
N      24.43       8.98      19.52
N      24.73       8.80       9.59
N      19.64       7.94      15.36
N      29.43       4.58      49.56
N      24.43       0.17      48.53
N      24.72      37.95       2.94
N      19.56       4.44      49.59
N      24.35      -2.69      49.20
N      24.74      -4.50      47.25
N      24.35      10.99      21.66
N      24.74      10.21      24.20
N       7.93      -4.91      47.36
N       8.33      -3.10      49.30
N       7.93      10.51      24.51
N       8.33      11.29      21.97
N       0.24     -12.32      47.04
N      32.49     -11.11      49.39
N       0.24      13.93      31.07
N      32.49      15.37      28.85
N      16.62       4.76      49.47
N      16.08       3.53      47.13
N      16.62       7.45      15.05
N      16.08       6.05      17.30
N      32.28       4.71      49.52
N       0.02       3.53      47.15
N      32.29       7.56      15.08
N       0.02       6.10      17.29
N      15.87     -12.32      47.04
N      16.42     -11.13      49.40
N      15.88      13.95      31.09
N      16.43      15.40      28.87
N      25.10      10.58       5.11
N      23.52      10.54       7.29
N       8.70     -19.44      39.44
N       7.11     -17.58      40.56
N       8.70      10.92      41.05
N       7.11      10.95      38.88
N       8.70      -2.86      13.95
N       7.12      -4.77      15.01
O      25.37      42.76      24.94
O      23.87      41.85      26.10
O      17.54      38.73      28.34
O      19.18      37.92      29.30
O      31.37      38.74      28.36
O      29.75      37.94      29.36
O       8.93      36.91      21.27
O       7.51      37.85      20.03
O       1.13      40.96      17.82
O       2.77      41.75      16.86
O      14.96      40.94      17.79
O      13.35      41.74      16.80
O      21.05      38.85       6.64
O      21.99      38.45       8.44
O      21.05      25.48      30.45
O      21.99      24.11      29.20
O      25.37      -3.65      44.83
O      23.87      -2.18      45.03
O      25.37       7.69      24.68
O      23.87       7.13      23.31
O       8.93      25.19       1.34
O       7.51      23.66       1.14
O       8.93      13.79      21.44
O       7.51      14.39      22.88
O       1.16      -8.91      49.96
O       2.76     -10.19      49.77
O       1.16      14.77      26.67
O       2.76      15.26      27.87
O      17.55       1.32      46.60
O      19.17       2.57      46.81
O      17.53       6.75      19.48
O      19.18       6.32      18.31
O      31.37       1.32      46.59
O      29.76       2.60      46.76
O      31.38       6.72      19.48
O      29.76       6.25      18.30
O      14.96      -8.93      49.97
O      13.34     -10.19      49.77
O      14.97      14.77      26.68
O      13.34      15.22      27.86
O      21.06      11.55       6.96
O      21.99      13.31       6.40
O       4.65     -17.36      39.51
O       5.58     -16.96      37.71
O       4.66       9.94      39.20
O       5.58       8.18      39.76
O       4.65      -3.98      15.73
O       5.58      -2.61      16.96
