48

Ba       2.15      -0.60       6.31
Ba       1.53       6.42       3.94
V       5.11       7.20       1.79
V      -1.43      -1.38       8.46
H       1.71       4.24       7.49
H       5.31       1.19       0.25
H      -0.95       8.41       4.35
H      -0.97       7.56       5.58
H       1.96       1.58       2.75
H      -1.63       4.63      10.00
H       4.63      -2.59       5.90
H       4.65      -1.74       4.66
C       2.22       2.02       9.16
C       2.07       3.50       9.37
C       1.83       4.47       8.42
C       1.67       5.79       8.84
C       1.35       6.88       7.80
C       2.76      -4.65      10.20
C       4.66      10.00       0.84
C       5.78      -0.67       2.33
C       1.46       3.80       1.09
C       1.61       2.32       0.88
C       1.85       1.35       1.83
C       2.00       0.03       1.40
C       2.33      -1.06       2.44
C       0.92      10.47       0.05
C      -0.99      -4.18       9.41
C      -2.10       6.49       7.91
N       4.79       8.75       0.41
N      -1.12      -2.93       9.84
O       2.12       1.51       8.06
O       5.00       6.31       0.03
O       5.04       8.91       2.88
O       5.70       0.37       2.94
O       1.55       6.58       6.63
O       1.87      -2.79       8.22
O       4.01       6.37       2.62
O      -0.63       6.74       2.24
O      -0.49       8.18       5.11
O       1.56       4.31       2.18
O      -1.32      -0.49      10.21
O      -1.36      -3.09       7.37
O      -2.02       5.45       7.30
O       2.12      -0.76       3.61
O       1.81       8.61       2.03
O      -0.33      -0.55       7.62
O       4.31      -0.92       8.01
O       4.16      -2.36       5.14
