29

H       3.29       3.92      10.86
H       5.83       1.24       8.62
H       7.06       5.32       9.29
H       5.64       3.38       6.39
H       5.54       2.34       4.12
H       9.38       0.52       4.77
H       9.48       1.57       7.05
C       4.88       6.07      10.80
C       5.14       4.75      10.15
C       4.20       3.73      10.30
C       4.46       2.46       9.77
C       3.50       1.36      10.07
C       5.62       2.23       9.03
C       6.51       3.28       8.82
C       6.31       4.53       9.41
C       7.57       2.52       6.84
C       6.45       2.75       6.03
C       6.40       2.17       4.77
C       7.45       1.36       4.30
C       7.31       0.71       2.98
C       8.57       1.17       5.12
C       8.64       1.74       6.38
O       3.71       6.28      11.24
O       5.83       6.92      10.88
O       2.28       1.66      10.27
O       3.91       0.13      10.12
O       7.69       3.08       8.10
O       6.25       0.92       2.29
O       8.23      -0.08       2.53
