131

Mn       8.87       6.70       0.00
Zn       3.86       2.91       7.07
Zn      19.42      14.66       8.13
H       6.35      11.16       1.18
H      10.06       9.30       4.42
H       6.71       9.39       4.21
H       6.24      11.26       5.79
H       9.06      13.75       3.72
H       9.52      11.88       2.11
H      12.69       5.33       7.37
H      10.79      14.50      14.04
H      11.58      10.43      10.78
H      12.40      13.69      11.00
H      10.73      14.65       9.41
H       7.57      12.62      11.48
H       9.25      11.66      13.10
H      14.67       6.82       7.84
H      16.92       6.40      14.02
H      13.21       8.26      10.79
H      16.57       8.17      11.00
H      17.03       6.30       9.41
H      14.21       3.82      11.48
H      13.75       5.69      13.10
H      10.58      12.23       7.84
H      12.48       3.06       1.17
H      11.70       7.13       4.42
H      10.87       3.87       4.21
H      12.54       2.91       5.79
H      15.70       4.95       3.72
H      14.03       5.90       2.11
H       8.61      10.74       7.37
H       5.60       4.22       4.90
H       7.61       5.74       4.83
H       7.59       5.72       9.14
H       5.57       4.20       9.04
H      17.68      13.34      10.31
H      15.66      11.82      10.37
H      15.69      11.84       6.07
H      17.70      13.36       6.17
C       6.59      10.28       0.59
C       7.60       9.32       0.95
C       8.39       9.40       2.11
C       9.36       8.46       2.47
C      10.14       8.52       3.67
C       8.13      10.53       3.05
C       7.21      10.35       4.09
C       6.95      11.39       4.97
C       7.61      12.62       4.84
C       8.54      12.79       3.81
C       8.80      11.75       2.91
C       7.32      13.73       5.81
C      10.15       6.06       7.09
C      12.57       6.41       7.47
C      11.28       6.96       7.33
C      11.58      14.04      14.62
C      12.24      12.81      14.25
C      11.94      12.07      13.09
C      12.58      10.88      12.73
C      12.30      10.14      11.53
C      10.92      12.63      12.15
C      11.34      13.47      11.12
C      10.41      14.01      10.23
C       9.05      13.70      10.37
C       8.63      12.85      11.40
C       9.56      12.32      12.29
C       8.07      14.28       9.40
C      14.66       9.47       8.12
C      13.66       7.23       7.73
C      13.49       8.62       7.86
C      16.68       7.28      14.61
C      15.67       8.24      14.25
C      14.89       8.16      13.10
C      13.92       9.11      12.73
C      13.13       9.05      11.53
C      15.14       7.04      12.16
C      16.06       7.21      11.12
C      16.33       6.17      10.23
C      15.66       4.94      10.37
C      14.73       4.77      11.40
C      14.47       5.81      12.29
C      15.95       3.84       9.40
C      13.12      11.50       8.12
C      10.70      11.15       7.73
C      11.99      10.60       7.87
C      11.70       3.53       0.59
C      11.04       4.75       0.96
C      11.33       5.49       2.11
C      10.69       6.68       2.47
C      10.97       7.42       3.67
C      12.35       4.94       3.05
C      11.93       4.09       4.09
C      12.86       3.56       4.98
C      14.22       3.86       4.84
C      14.64       4.71       3.81
C      13.71       5.24       2.91
C      15.21       3.28       5.81
C       8.62       8.10       7.09
C       9.61      10.33       7.47
C       9.78       8.94       7.34
C       6.07       4.58       5.81
C       7.18       5.42       5.78
C       7.73       5.83       6.99
C       7.16       5.40       8.19
C       6.06       4.57       8.13
C      11.07       8.36       7.47
C      17.20      12.98       9.40
C      16.09      12.14       9.43
C      15.54      11.73       8.22
C      16.11      12.16       7.02
C      17.22      13.00       7.07
C      12.20       9.20       7.73
N       5.52       4.16       6.97
N       8.88       6.70       7.03
N      17.76      13.40       8.24
N      14.39      10.86       8.17
N      13.20      12.49      15.19
N      10.07       5.07       0.01
N       9.70       7.32       1.74
N      13.57      10.24      13.46
O       8.04      14.78       5.73
O       6.38      13.51       6.64
O      10.24       4.84       6.94
O       6.86      13.88       9.47
O       8.53      15.13       8.57
O      15.81       9.05       8.26
O      15.23       2.78       9.47
O      16.90       4.05       8.57
O      13.04      12.72       8.26
O      16.42       3.68       5.73
O      14.74       2.43       6.63
O       7.46       8.51       6.94
