36

O      -0.47       2.01       7.14
O       0.40       2.97       9.01
C       0.03       3.06       7.75
C       0.43       6.86       5.74
C       0.67       5.65       5.04
C       0.58       4.42       5.72
C       0.12       4.37       7.05
C      -0.26       5.57       7.69
C      -0.04       6.80       7.06
C      -1.00       5.55       8.97
C      -2.25       4.90       9.05
C      -3.06       5.08      10.18
C      -2.65       5.95      11.20
C      -1.42       6.60      11.11
C      -0.57       6.35      10.03
C       0.85       5.65       3.57
C      -0.21       6.01       2.73
C      -0.12       5.81       1.35
C       1.05       5.28       0.79
C       2.12       4.93       1.62
C       2.01       5.08       3.01
O      -0.49       8.97       5.01
H       0.81       3.50       5.19
O       1.77       8.67       4.82
H      -0.30       7.72       7.57
H      -0.95       6.06       0.70
H       2.82       4.75       3.65
H      -1.13       6.40       3.15
H      -2.61       4.29       8.23
H      -4.01       4.58      10.24
H       0.39       6.85       9.98
H      -1.12       7.30      11.87
H      -3.30       6.12      12.05
H       1.13       5.14      -0.28
H       3.03       4.53       1.19
C       0.57       8.19       5.09
