36

C       6.98       1.98      23.93
O       8.15       1.37      23.85
O       6.63       2.88      23.03
C       2.82      -0.64      26.61
O       2.73      -1.71      25.85
O       1.89      -0.37      27.51
H       7.28      -0.03      25.73
H       2.74       1.98      25.91
H       5.74      -4.70      27.63
H       6.89      -4.14      29.75
H       7.29      -1.77      30.36
H       6.48       0.04      28.88
H       5.03      -2.90      26.09
H       6.38       4.30      25.75
H       6.18       6.61      24.91
H       2.70       3.29      23.74
H       2.36       5.68      23.21
H       4.11       7.34      23.75
C       3.95       0.28      26.41
C       5.27      -0.22      26.48
C       6.28       0.40      25.73
C       6.01       1.55      24.98
C       4.76       2.20      25.16
C       3.73       1.54      25.85
C       4.57       3.62      24.78
C       5.52       4.59      25.17
C       5.38       5.91      24.74
C       4.24       6.30      24.04
C       3.26       5.36      23.72
C       3.44       4.02      24.05
C       5.64      -1.30      27.42
C       5.46      -2.65      27.05
C       5.89      -3.67      27.90
C       6.55      -3.35      29.10
C       6.77      -2.01      29.44
C       6.31      -0.99      28.61
