36

C      -4.70      17.73       8.04
O      -4.23      18.73       8.78
O      -5.98      17.64       7.77
C      -2.05      14.95       6.04
C      -1.53      16.14       6.62
C      -2.41      17.05       7.25
C      -3.76      16.72       7.45
C      -4.23      15.45       6.99
C      -3.42      14.69       6.14
C      -5.39      14.77       7.63
C      -5.39      14.57       9.01
C      -6.18      13.57       9.58
C      -7.01      12.79       8.78
C      -7.03      13.00       7.40
C      -6.25      14.01       6.83
C      -0.08      16.35       6.75
C       0.60      17.11       5.78
C       1.91      17.53       6.02
C       2.54      17.20       7.22
C       1.86      16.45       8.19
C       0.56      16.00       7.94
H      -2.02      17.99       7.62
H      -3.82      13.79       5.69
H       2.43      18.14       5.30
H       3.55      17.54       7.41
H       2.33      16.23       9.13
H       0.04      15.43       8.70
H       0.10      17.41       4.87
H      -4.74      15.16       9.64
H      -6.13      13.37      10.64
H      -6.27      14.15       5.75
H      -7.64      12.36       6.77
H      -7.62      12.01       9.22
O      -1.57      12.66       5.46
O      -0.28      14.31       4.53
C      -1.16      13.92       5.43
