36

H       4.47      12.16      23.27
H       5.40      14.22      18.85
H       6.98      12.57      19.82
H       6.50      11.53      22.02
C       1.96      13.69      18.28
C       2.68      18.80      20.83
O       1.59      19.49      21.02
O       3.79      19.15      21.42
C       2.61      17.53      20.09
C       1.76      17.39      18.97
C       1.51      16.12      18.46
C       2.18      14.99      18.95
C       3.13      15.16      20.00
C       3.30      16.42      20.58
C       3.98      14.05      20.48
C       3.74      13.50      21.75
C       4.66      12.60      22.30
C       5.82      12.25      21.60
C       6.08      12.83      20.35
C       5.18      13.74      19.80
C       1.28      18.56      18.22
C       0.01      19.10      18.50
C      -0.55      20.06      17.65
C       0.13      20.44      16.49
C       1.38      19.89      16.19
C       1.97      18.98      17.07
O       0.90      13.53      17.53
O       2.96      12.87      18.13
H       0.84      16.02      17.61
H       3.98      16.53      21.42
H      -1.52      20.48      17.87
H      -0.31      21.17      15.82
H       1.89      20.17      15.28
H       2.94      18.55      16.83
H      -0.55      18.76      19.36
H       2.85      13.77      22.30
