36

C       7.52       1.61      33.24
C       3.63      -2.01      31.09
C       4.50      -1.06      31.83
C       5.48      -1.52      32.74
C       6.54      -0.66      33.11
C       6.60       0.65      32.62
H       7.29      -1.01      33.81
C       4.55       0.27      31.38
H       3.81       0.62      30.67
C       5.61       1.11      31.73
O       8.80       1.31      33.37
O       7.03       2.61      33.94
C       5.66       2.48      31.17
C       4.61       3.37      31.39
C       5.37      -2.84      33.38
C       4.41      -3.06      34.38
O       3.46      -1.81      29.82
C       6.77       2.89      30.41
O       2.84      -2.85      31.73
C       6.28      -3.86      33.06
H       3.73       3.05      31.93
H       7.59       2.20      30.21
H       3.87       5.37      31.08
H       5.87       6.11      29.81
H       7.70       4.51      29.34
C       4.35      -4.29      35.04
C       6.23      -5.08      33.73
H       3.61      -4.45      35.82
H       5.22      -6.24      35.25
H       6.94      -5.86      33.49
H       7.05      -3.69      32.31
C       4.68       4.68      30.90
H       3.72      -2.27      34.65
C       5.80       5.10      30.18
C       6.84       4.20      29.92
C       5.26      -5.30      34.72
