36

H       5.57       7.92      21.88
C       4.37       9.13      17.56
H       6.80       8.14      17.10
H       0.97       7.80      22.17
H       0.27      10.18      22.03
H       1.67      11.81      20.79
H       3.82      11.09      19.78
H       3.07       7.06      21.09
H       6.36       5.65      16.65
H       7.82       4.14      15.36
H       9.39       5.93      19.70
H      10.74       4.25      18.50
H       9.95       3.35      16.33
C       6.92       5.75      21.10
O       6.46       4.60      20.68
O       7.34       5.88      22.33
C       5.34       8.71      18.57
C       4.97       8.63      19.94
C       5.78       7.91      20.81
C       6.65       6.95      20.30
C       7.01       7.01      18.93
C       6.47       8.03      18.13
C       7.78       5.92      18.27
C       7.33       5.37      17.05
C       8.14       4.50      16.33
C       9.36       4.07      16.86
C       9.80       4.57      18.09
C       9.02       5.51      18.78
C       3.62       9.04      20.40
C       2.78       8.10      21.05
C       1.60       8.52      21.65
C       1.20       9.86      21.58
C       2.00      10.78      20.89
C       3.20      10.37      20.30
O       3.38       8.34      17.26
O       4.48      10.30      16.98
