12

Cu       1.42       2.20       2.88
C      -1.02       0.60       1.63
C       1.26      -0.01       4.88
C       3.08       1.41       5.10
N       0.81       3.51       1.46
N       1.98       1.04       4.44
O       0.68       3.35       4.32
O      -0.27       0.70       2.64
C       1.44       4.34       4.68
O       2.43       1.26       1.42
C       1.48       3.65       0.29
C      -0.32       4.20       1.65
