15

Ni       4.44       4.16       9.69
Ni       2.52       5.21      11.77
C       2.78       3.05      13.89
C       2.94       6.34       8.91
C       5.57       5.71      11.70
C       0.29       6.10      12.30
O       5.82       4.94      10.67
O       2.45       4.20      13.58
O       3.68       5.36       8.47
O       2.46       6.43      10.06
O       4.45       5.82      12.26
O       3.08       3.38      10.74
O       0.41       5.02      11.61
O       1.33       6.69      12.75
H       2.31       3.12      10.21
