13

H       8.32      17.54      10.37
H       7.61      19.98      11.15
O      10.43      16.05       9.45
O      12.33      17.25       9.38
C      11.08      17.17       9.60
C      10.33      18.34      10.06
C       8.99      18.40      10.42
C       8.60      19.70      10.83
C       9.66      20.60      10.77
C       9.61      22.05      11.03
O       8.46      22.58      11.22
O      10.71      22.72      11.02
S      11.12      19.87      10.22
