13

C       5.43       5.05       3.89
C       5.52       5.05       5.36
C       4.49       5.22       6.28
C       4.95       5.20       7.61
C       6.32       5.02       7.70
C       7.17       4.93       8.90
H       3.45       5.35       5.99
H       4.31       5.29       8.49
O       6.51       4.88       3.20
O       4.30       5.22       3.34
O       8.41       4.69       8.77
O       6.61       5.10      10.06
S       7.05       4.87       6.14
