16

V       0.42      -3.09      10.48
V       4.02      -3.38      10.61
O       3.61      -2.72       8.76
O      -0.00      -3.76      12.34
O       1.19      -1.39      11.24
O      -2.37      -5.08       9.85
O       1.23      -2.57       8.70
O      -2.38      -3.91      12.39
O       0.04      -4.94       9.78
C       2.42      -0.93      11.50
O       2.42      -4.01      10.90
O      -1.19      -2.46      10.19
C      -1.16      -3.95      12.94
C       2.45      -2.53       8.15
C      -1.14      -5.54       9.60
O       3.60      -1.53      11.32
