184

Zn      11.48       2.94       0.82
Zn       0.34       2.94       7.12
Zn       5.58       4.83       7.11
Zn       6.25       4.83       0.83
Zn       0.34      12.65      15.06
Zn      11.48      12.65       8.76
Zn       6.25      10.76       8.77
Zn       5.58      10.76      15.05
Zn       8.88       3.90       2.49
Zn       2.95       3.90       5.45
Zn       2.95      11.69      13.39
Zn       8.88      11.69      10.43
Zn      11.82      12.79      11.91
Zn       5.91      10.55      11.91
Zn       0.01       2.79       3.97
Zn       5.91       5.03       3.97
H       0.58       6.53      14.52
H       0.52       8.71      13.30
H      11.24       6.53       9.30
H      11.30       8.71      10.52
H       6.49       1.26       9.31
H       6.45      14.66      10.52
H       5.33       1.26      14.51
H       5.37      14.66      13.30
H      11.24       9.05       1.36
H      11.30       6.87       2.58
H       0.58       9.05       6.58
H       0.52       6.87       5.36
H       5.33      14.32       6.57
H       5.37       0.93       5.36
H       6.49      14.32       1.37
H       6.45       0.93       2.58
C      11.48       7.11      14.46
C      10.35       6.66      15.15
C      10.46       5.39       0.08
C       9.14       7.40      15.07
C       9.06       8.54      14.25
C       7.75       9.28      14.08
C      10.22       8.99      13.60
C      10.22      10.24      12.76
C      11.44       8.31      13.74
C       7.95       6.94       0.02
C       0.34       7.11       9.36
C       1.47       6.66       8.67
C       1.36       5.39       7.86
C       2.68       7.40       8.75
C       2.76       8.54       9.57
C       4.08       9.28       9.74
C       1.60       8.99      10.22
C       1.60      10.24      11.06
C       0.39       8.31      10.08
C       3.87       6.94       7.92
C       5.57       0.68       9.37
C       4.44       1.13       8.68
C       4.55       2.40       7.88
C       3.24       0.39       8.76
C       3.17      14.82       9.57
C       1.86      14.07       9.74
C       4.33      14.36      10.22
C       4.33      13.11      11.06
C       5.54      15.06      10.08
C       2.05       0.84       7.93
C       6.25       0.68      14.45
C       7.38       1.13      15.14
C       7.28       2.40       0.06
C       8.59       0.39      15.06
C       8.65      14.82      14.25
C       9.97      14.07      14.08
C       7.50      14.36      13.60
C       7.49      13.11      12.76
C       6.28      15.06      13.74
C       9.78       0.84       0.01
C       0.34       8.47       1.42
C       1.47       8.92       0.73
C       1.36      10.19      15.80
C       2.68       8.19       0.81
C       2.76       7.05       1.63
C       4.08       6.31       1.80
C       1.60       6.59       2.28
C       1.60       5.34       3.12
C       0.39       7.28       2.14
C       3.87       8.64      15.86
C      11.48       8.47       6.52
C      10.35       8.92       7.21
C      10.46      10.19       8.02
C       9.14       8.19       7.13
C       9.06       7.05       6.31
C       7.75       6.31       6.14
C      10.22       6.59       5.66
C      10.22       5.34       4.82
C      11.44       7.28       5.80
C       7.95       8.64       7.96
C       6.25      14.91       6.51
C       7.38      14.46       7.20
C       7.28      13.18       8.00
C       8.59      15.20       7.12
C       8.66       0.76       6.31
C       9.97       1.51       6.14
C       7.50       1.22       5.66
C       7.49       2.48       4.82
C       6.28       0.53       5.80
C       9.78      14.75       7.95
C       5.57      14.91       1.43
C       4.44      14.46       0.74
C       4.55      13.18      15.82
C       3.24      15.20       0.82
C       3.17       0.76       1.63
C       1.86       1.51       1.80
C       4.33       1.22       2.28
C       4.33       2.48       3.12
C       5.54       0.53       2.14
C       2.05      14.75      15.87
O      11.44       4.63      15.67
O       9.59       5.20       0.97
O       7.84       7.54       1.11
O       7.23       6.01      15.41
O       7.39       9.98      15.08
O       7.16       9.12      12.97
O       9.53      10.18      11.70
O      10.94      11.20      13.16
O       7.20       4.98       2.50
O       0.38       4.63       8.14
O       2.24       5.20       6.97
O       3.99       7.54       6.83
O       4.59       6.01       8.41
O       4.43       9.98       8.74
O       4.66       9.12      10.84
O       2.29      10.18      12.12
O       0.88      11.20      10.66
O       4.62       4.98       5.44
O       5.55       3.15       8.14
O       3.65       2.62       7.02
O       1.96       0.27       6.82
O       1.29       1.74       8.42
O       1.50      13.37       8.74
O       1.28      14.23      10.85
O       3.65      13.16      12.12
O       5.06      12.15      10.65
O       1.28       2.83       5.44
O       6.28       3.15      15.68
O       8.17       2.62       0.92
O       9.86       0.27       1.12
O      10.53       1.74      15.40
O      10.33      13.37      15.08
O      10.55      14.23      12.97
O       8.18      13.16      11.70
O       6.76      12.15      13.17
O      10.54       2.83       2.50
O       0.38      10.95       0.20
O       2.24      10.38      14.91
O       3.99       8.04      14.77
O       4.59       9.58       0.47
O       4.43       5.61       0.80
O       4.66       6.47       2.90
O       2.29       5.40       4.18
O       0.88       4.39       2.72
O       4.62      10.60      13.38
O      11.44      10.95       7.74
O       9.59      10.38       8.91
O       7.84       8.04       9.05
O       7.23       9.58       7.47
O       7.39       5.61       7.14
O       7.16       6.47       5.03
O       9.53       5.40       3.76
O      10.94       4.39       5.22
O       7.20      10.60      10.44
O       6.28      12.43       7.74
O       8.17      12.96       8.86
O       9.86      15.32       9.06
O      10.53      13.84       7.46
O      10.33       2.21       7.14
O      10.55       1.36       5.03
O       8.17       2.42       3.76
O       6.77       3.44       5.23
O      10.54      12.75      10.44
O       5.55      12.43       0.20
O       3.65      12.96      14.96
O       1.96      15.32      14.76
O       1.29      13.84       0.48
O       1.50       2.21       0.80
O       1.28       1.36       2.91
O       3.65       2.42       4.18
O       5.06       3.44       2.71
O       1.28      12.75      13.38
