20

H       6.58       9.15       7.23
H       5.70      10.41       7.56
H       4.39       7.11       6.50
H       4.07       7.23       4.97
H       6.68       6.96       6.02
H       6.38       7.12       4.49
H       4.58       4.07       3.47
H       4.37       5.61       3.49
C       5.06       8.73       8.52
C       5.67       9.46       7.35
C       4.72       7.46       5.66
C       6.03       6.77       5.32
C       5.04       4.91       3.55
C       5.97       5.06       2.38
S       5.78       4.98       5.18
S       4.79       9.26       5.78
O       7.21       5.11       2.50
O       3.82       8.76       8.71
O       5.85       8.12       9.28
O       5.43       5.14       1.24
