20

H       3.50      10.43      10.87
H       1.87       8.72      10.19
H       4.02       8.41       6.43
H       5.61      10.06       7.31
H       1.17       5.22       5.17
H       2.80       6.93       5.85
H       0.64       7.24       9.61
H      -0.94       5.59       8.73
C       3.58       9.95       9.89
C       2.65       9.00       9.49
C       2.79       8.34       8.23
C       3.85       8.81       7.43
C       4.74       9.75       7.90
C       1.09       5.70       6.14
C       2.01       6.65       6.55
C       1.88       7.31       7.81
C       0.81       6.85       8.61
C      -0.08       5.90       8.14
N       4.64      10.32       9.14
N       0.03       5.33       6.90
