14

Cu      10.40       0.16       8.88
C      11.96      -1.44       7.18
Cu      11.14      -1.95       9.87
C      12.83       0.27      10.32
C       9.58      -0.35      11.56
O       9.48       0.49      10.60
O      12.03       0.99       9.62
O      12.71      -0.98      10.55
O      10.17      -1.49      11.52
C       8.70      -2.07       8.43
O      12.05      -2.29       8.15
O       9.50      -2.78       9.13
O       8.83      -0.81       8.20
O      11.36      -0.31       7.23
