1040

H       9.47      12.55      41.98
H       9.24      14.84      41.40
H       5.46      12.48      43.29
H       5.21      14.74      42.64
H       5.48      17.07      43.47
H       6.02      18.46      45.30
H       9.92      18.98      43.78
H       9.38      17.57      41.94
H       7.75      18.81      40.14
H       8.90      19.27      38.10
H       8.89      15.15      37.18
H       7.75      14.70      39.19
H       5.31      14.71      39.79
H       5.27      18.65      41.30
H       2.96      18.82      40.78
H       3.02      14.91      39.21
H      12.41      28.03      18.37
H      12.64      25.73      17.79
H      16.42      28.09      19.69
H      16.67      25.83      19.03
H      16.40      23.50      19.85
H      15.86      22.10      21.69
H      11.96      21.59      20.18
H      12.50      23.01      18.33
H      14.13      21.76      16.53
H      12.98      21.30      14.49
H      12.99      25.42      13.57
H      14.14      25.87      15.58
H      16.57      25.86      16.18
H      16.61      21.92      17.69
H      18.92      21.75      17.17
H      18.86      25.66      15.60
H      40.68      40.71       6.38
H      38.41      40.46       5.74
H      40.56      36.90       8.21
H      38.32      36.63       7.50
H      35.84      36.57       7.87
H      34.42      37.08       9.69
H      34.36      41.14       8.51
H      35.80      40.62       6.68
H      34.38      39.18       4.81
H      33.93      40.34       2.78
H      37.99      39.94       1.68
H      38.42      38.78       3.68
H      38.68      36.48       4.69
H      34.54      36.57       5.50
H      34.38      34.26       4.96
H      38.51      34.20       4.09
H      25.03      43.70      29.99
H      27.30       0.11      29.35
H      25.15       3.67      31.81
H      27.39       3.94      31.11
H      29.87       4.01      31.48
H      31.29       3.50      33.29
H      31.35      43.27      32.13
H      29.91      43.79      30.29
H      31.33       1.39      28.42
H      31.78       0.23      26.39
H      27.73       0.63      25.29
H      27.29       1.80      27.29
H      27.03       4.10      28.30
H      31.17       4.01      29.11
H      31.33       6.31      28.56
H      27.20       6.38      27.70
H      12.39      12.27      28.97
H      12.56      14.57      29.52
H      16.26      12.39      27.29
H      16.45      14.66      27.90
H      16.51      17.13      27.39
H      16.05      18.29      25.39
H      11.93      18.21      26.28
H      12.39      17.05      28.30
H      13.61      18.70      30.11
H      12.20      19.23      31.97
H      12.77      15.34      33.50
H      14.15      14.81      31.65
H      16.46      14.49      30.75
H      16.36      18.55      29.63
H      18.65      18.77      30.21
H      18.73      14.72      31.40
H       9.49      28.31       5.36
H       9.32      26.00       5.90
H       5.62      28.19       3.68
H       5.43      25.91       4.29
H       5.37      23.45       3.78
H       5.83      22.29       1.78
H       9.96      22.36       2.67
H       9.49      23.52       4.69
H       8.27      21.87       6.51
H       9.68      21.34       8.36
H       9.12      25.24       9.88
H       7.73      25.77       8.03
H       5.42      26.08       7.15
H       5.52      22.02       6.02
H       3.23      21.80       6.60
H       3.15      25.85       7.79
H      24.82      40.74      17.24
H      27.12      40.57      17.80
H      24.98      36.96      15.38
H      27.25      36.75      16.01
H      29.76      36.59      15.64
H      30.92      37.03      13.64
H      30.75      41.17      14.43
H      29.58      40.73      16.46
H      31.24      39.60      18.28
H      31.75      41.00      20.14
H      27.92      40.26      21.74
H      27.40      38.89      19.88
H      27.00      36.61      18.83
H      31.12      36.81      17.95
H      31.35      34.52      18.53
H      27.23      34.35      19.45
H      40.89      43.65      40.86
H      38.60       0.01      41.41
H      40.74       3.61      38.99
H      38.46       3.82      39.61
H      35.96       3.98      39.25
H      34.80       3.54      37.25
H      34.97      43.23      38.04
H      36.13      43.68      40.07
H      34.47       0.96      41.89
H      33.96      43.39      43.75
H      37.79       0.31      45.35
H      38.31       1.69      43.49
H      38.72       3.96      42.44
H      34.60       3.76      41.57
H      34.37       6.05      42.14
H      38.48       6.23      43.06
H      34.39      28.11       5.36
H      34.61      25.83       6.00
H      38.23      27.98       3.62
H      38.47      25.73       4.30
H      38.49      23.26       3.90
H      37.97      21.84       2.08
H      33.92      21.78       3.25
H      34.44      23.22       5.09
H      35.88      21.80       6.96
H      34.72      21.35       8.98
H      35.09      25.41      10.08
H      36.27      25.84       8.08
H      38.59      26.07       7.10
H      38.49      21.94       6.26
H      40.80      21.78       6.79
H      40.88      25.91       7.66
H      31.32      12.46      28.97
H      31.11      14.74      29.60
H      27.48      12.59      27.22
H      27.24      14.85      27.90
H      27.22      17.32      27.51
H      27.74      18.74      25.69
H      31.79      18.79      26.86
H      31.27      17.36      28.70
H      29.83      18.78      30.57
H      30.99      19.22      32.60
H      30.62      15.16      33.69
H      29.45      14.73      31.69
H      27.13      14.50      30.72
H      27.22      18.63      29.87
H      24.91      18.79      30.40
H      24.84      14.66      31.28
H       3.20      43.70      40.53
H       5.48       0.10      41.14
H       3.13       3.91      39.30
H       5.39       4.15      39.95
H       7.77       3.94      39.20
H       9.17       3.44      37.36
H       9.60      43.31      38.75
H       8.17      43.81      40.60
H       9.42       1.53      42.47
H       9.84       0.37      44.50
H       5.71       0.43      45.38
H       5.30       1.61      43.38
H       5.29       4.05      42.75
H       9.30       4.04      41.44
H       9.49       6.34      42.00
H       5.49       6.33      43.34
H      18.69      40.70      16.92
H      16.40      40.47      17.54
H      18.75      36.67      15.68
H      16.50      36.42      16.34
H      14.11      36.63      15.60
H      12.71      37.13      13.76
H      12.29      41.09      15.14
H      13.71      40.59      16.99
H      12.47      39.04      18.85
H      12.04      40.21      20.88
H      16.17      40.13      21.77
H      16.58      38.96      19.77
H      16.60      36.52      19.14
H      12.58      36.53      17.84
H      12.40      34.23      18.40
H      16.40      34.24      19.73
H      31.41      28.32      18.10
H      31.23      26.02      17.55
H      27.64      28.18      19.97
H      27.42      25.90      19.37
H      27.25      23.39      19.74
H      27.69      22.23      21.74
H      31.83      22.40      20.94
H      31.38      23.56      18.91
H      30.25      21.90      17.09
H      31.65      21.38      15.23
H      30.91      25.21      13.62
H      29.54      25.74      15.48
H      27.27      26.16      16.56
H      27.46      22.04      17.42
H      25.16      21.82      16.85
H      25.00      25.94      15.96
H      34.30      12.25      41.71
H      34.48      14.55      41.17
H      38.08      12.39      43.58
H      38.29      14.67      42.98
H      38.46      17.18      43.35
H      38.02      18.34      45.35
H      33.88      18.18      44.55
H      34.33      17.01      42.52
H      35.46      18.67      40.70
H      34.07      19.19      38.84
H      34.80      15.36      37.23
H      36.17      14.83      39.10
H      38.44      14.41      40.16
H      38.26      18.53      41.03
H      40.56      18.75      40.46
H      40.71      14.63      39.56
H      18.95      43.65      30.18
H      16.66       0.01      29.60
H      18.88       3.77      31.66
H      16.61       3.97      31.04
H      14.15       4.00      31.57
H      12.97       3.58      33.57
H      12.98      43.28      32.71
H      14.16      43.71      30.68
H      12.58       1.10      28.82
H      12.08      43.52      26.96
H      16.03       0.18      25.55
H      16.52       1.58      27.39
H      16.78       3.94      28.23
H      12.70       3.81      29.30
H      12.47       6.09      28.69
H      16.54       6.20      27.59
H       2.93      40.75       6.57
H       5.22      40.57       5.98
H       3.00      36.81       8.06
H       5.27      36.61       7.44
H       7.74      36.57       7.96
H       8.92      36.99       9.95
H       8.89      41.12       9.11
H       7.72      40.69       7.08
H       9.30      39.48       5.22
H       9.80      40.89       3.36
H       5.86      40.39       1.93
H       5.36      38.99       3.78
H       5.10      36.63       4.63
H       9.18      36.77       5.69
H       9.41      34.48       5.08
H       5.33      34.37       3.98
H      11.30      18.62      37.13
H       9.87      16.41      33.07
H       8.46      16.37      34.98
H      10.58      21.95      13.52
H      12.01      24.17       9.46
H      13.42      24.21      11.37
H      34.64      42.62       1.77
H      36.68      41.13      44.85
H      36.72      39.70      46.75
H      31.06      41.79      25.38
H      29.03      43.27      21.24
H      28.99       0.87      23.14
H      32.43      22.06       9.99
H      33.91      24.11      14.13
H      35.34      24.15      12.23
H      33.28      18.51      33.60
H      31.80      16.46      37.74
H      30.37      16.43      35.84
H       9.19      41.82      45.47
H       6.92      43.24       2.29
H       6.89       0.82       0.37
H      12.70      42.58      21.86
H      14.96      41.16      25.90
H      14.99      39.75      23.98
H      33.23      40.52      13.49
H      31.76      38.24       9.47
H      30.37      38.23      11.40
H      32.49       0.05      37.10
H      33.95       2.34      33.08
H      35.34       2.35      35.01
H      12.55      20.64      25.32
H      14.80      19.24      21.27
H      14.85      17.83      23.18
H       9.33      19.93       1.71
H       7.08      21.33      44.87
H       7.04      22.75      46.79
H      10.58       0.08      33.67
H      11.98       2.37      37.70
H      13.39       2.40      35.78
H      11.30      40.49      10.06
H       9.90      38.19      14.09
H       8.49      38.16      12.17
H      31.18      19.92      21.88
H      28.90      21.39      25.90
H      28.89      22.78      23.97
H      34.54      20.66      45.49
H      36.81      19.18       2.30
H      36.82      17.79       0.36
H       9.23       8.20      43.99
H       5.83      10.60      41.50
H       5.82       8.24      41.51
H      12.66      32.37      20.38
H      16.05      29.97      17.89
H      16.07      32.33      17.90
H       1.11      40.63       8.50
H      42.50      37.02       6.38
H       1.03      36.99       6.37
H      20.77      43.78      32.11
H      23.21       3.55      29.98
H      20.85       3.58      29.98
H      12.67       7.96      26.87
H      16.08      10.50      29.19
H      16.17       8.14      29.21
H       9.21      32.62       3.26
H       5.80      30.07       5.58
H       5.71      32.43       5.60
H      20.54      40.56      15.10
H      23.07      37.05      17.28
H      20.71      36.96      17.29
H       1.35       0.01      38.71
H      42.64       3.52      40.89
H       1.18       3.60      40.91
H      34.65      32.41       3.21
H      38.04      29.87       5.57
H      38.11      32.23       5.61
H      31.06       8.17      26.82
H      27.67      10.70      29.18
H      27.60       8.34      29.22
H      31.15      32.64      20.26
H      27.76      30.05      17.96
H      27.65      32.41      17.92
H      34.57       7.93      43.87
H      37.96      10.53      41.57
H      38.06       8.17      41.52
H      23.01      18.41      32.24
H      20.58      15.18      29.56
H      22.95      15.15      29.56
H      42.70      22.16       8.62
H       1.30      25.39       5.95
H      42.77      25.42       5.95
H      42.45      18.49      38.70
H       1.16      15.16      41.13
H      42.63      15.08      41.17
H      23.26      22.08      15.09
H      20.72      25.41      17.53
H      23.08      25.49      17.56
C       2.76      16.88      39.95
C       3.45      17.96      40.53
C       4.81      17.84      40.87
C       5.52      16.62      40.72
C       4.84      15.60      39.99
C       3.49      15.71      39.63
C       6.94      16.40      41.23
C       7.73      16.69      39.95
C       8.01      15.67      39.01
C       8.67      15.94      37.80
C       9.03      17.26      37.45
C       8.69      18.30      38.34
C       8.02      18.02      39.55
C       7.33      17.26      42.43
C       7.16      15.00      41.83
C       8.43      14.36      41.80
C       8.58      13.01      42.17
C       7.48      12.28      42.68
C       6.27      12.97      42.91
C       6.13      14.31      42.50
C       6.42      17.47      43.50
C       6.73      18.29      44.59
C       8.01      18.88      44.69
C       8.98      18.59      43.72
C       8.65      17.77      42.62
C      19.12      23.69      16.34
C      18.43      22.61      16.91
C      17.07      22.73      17.25
C      16.36      23.95      17.11
C      17.04      24.97      16.38
C      18.39      24.86      16.03
C      14.94      24.17      17.62
C      14.15      23.89      16.35
C      13.87      24.91      15.40
C      13.21      24.64      14.19
C      12.85      23.32      13.84
C      13.19      22.28      14.73
C      13.86      22.55      15.94
C      14.55      23.31      18.82
C      14.72      25.57      18.22
C      13.45      26.21      18.19
C      13.30      27.56      18.56
C      14.40      28.29      19.07
C      15.61      27.60      19.30
C      15.76      26.26      18.90
C      15.46      23.10      19.89
C      15.15      22.28      20.98
C      13.87      21.69      21.08
C      12.90      21.99      20.11
C      13.23      22.80      19.01
C      36.44      33.98       4.50
C      35.29      34.72       4.86
C      35.39      36.08       5.21
C      36.65      36.74       5.29
C      37.76      36.03       4.75
C      37.66      34.68       4.39
C      36.78      38.18       5.81
C      36.48      38.95       4.53
C      37.47      39.12       3.53
C      37.21      39.79       2.33
C      35.91      40.27       2.03
C      34.89      40.04       2.98
C      35.16      39.36       4.18
C      35.87      38.51       6.99
C      38.15      38.47       6.44
C      38.84      39.70       6.26
C      40.17      39.86       6.68
C      40.85      38.83       7.35
C      40.11      37.68       7.71
C      38.79      37.52       7.28
C      35.51      37.53       7.95
C      34.68      37.84       9.04
C      34.22      39.15       9.24
C      34.66      40.17       8.37
C      35.49      39.85       7.28
C      29.27       6.59      28.11
C      30.42       5.85      28.47
C      30.32       4.49      28.82
C      29.06       3.83      28.90
C      27.95       4.54      28.36
C      28.05       5.89      28.00
C      28.93       2.40      29.42
C      29.23       1.62      28.14
C      28.24       1.45      27.14
C      28.50       0.78      25.94
C      29.80       0.30      25.64
C      30.82       0.53      26.59
C      30.55       1.21      27.79
C      29.84       2.06      30.60
C      27.56       2.11      30.04
C      26.87       0.87      29.87
C      25.53       0.71      30.28
C      24.86       1.75      30.96
C      25.60       2.90      31.32
C      26.93       3.06      30.89
C      30.20       3.04      31.56
C      31.03       2.74      32.65
C      31.50       1.43      32.85
C      31.05       0.41      31.98
C      30.22       0.72      30.89
C      18.93      16.76      30.85
C      18.19      17.87      30.38
C      16.84      17.73      30.01
C      16.19      16.47      30.00
C      16.90      15.41      30.64
C      18.24      15.55      31.04
C      14.80      16.27      29.41
C      13.93      16.65      30.61
C      13.74      15.74      31.68
C      12.93      16.05      32.78
C      12.32      17.32      32.88
C      12.61      18.29      31.90
C      13.42      17.97      30.80
C      14.51      17.07      28.14
C      14.57      14.85      28.88
C      13.35      14.13      29.05
C      13.24      12.77      28.70
C      14.31      12.09      28.09
C      15.46      12.84      27.74
C      15.57      14.19      28.11
C      15.54      17.38      27.21
C      15.27      18.04      26.00
C      13.94      18.38      25.64
C      12.90      18.02      26.52
C      13.18      17.34      27.72
C       2.96      23.81       7.24
C       3.69      22.70       6.77
C       5.05      22.84       6.40
C       5.69      24.11       6.39
C       4.99      25.16       7.03
C       3.65      25.02       7.43
C       7.08      24.31       5.80
C       7.95      23.92       7.00
C       8.14      24.83       8.07
C       8.96      24.52       9.17
C       9.56      23.25       9.27
C       9.27      22.28       8.29
C       8.46      22.61       7.19
C       7.37      23.51       4.53
C       7.31      25.73       5.27
C       8.53      26.44       5.44
C       8.64      27.80       5.08
C       7.57      28.48       4.47
C       6.42      27.73       4.13
C       6.31      26.38       4.50
C       6.35      23.19       3.60
C       6.62      22.53       2.39
C       7.94      22.19       2.03
C       8.98      22.56       2.91
C       8.70      23.23       4.11
C      29.31      34.18      19.01
C      30.43      34.96      18.64
C      30.29      36.31      18.27
C      29.01      36.93      18.19
C      27.93      36.20      18.76
C      28.07      34.85      19.14
C      28.83      38.33      17.61
C      29.22      39.19      18.81
C      28.32      39.33      19.91
C      28.62      40.14      21.01
C      29.87      40.79      21.10
C      30.83      40.56      20.09
C      30.51      39.75      18.98
C      29.64      38.60      16.34
C      27.41      38.58      17.07
C      26.69      39.79      17.30
C      25.33      39.92      16.93
C      24.67      38.87      16.26
C      25.42      37.74      15.88
C      26.77      37.62      16.25
C      30.00      37.57      15.44
C      30.66      37.83      14.23
C      30.96      39.15      13.84
C      30.57      40.20      14.70
C      29.89      39.93      15.90
C      36.41       6.39      42.62
C      35.28       5.61      42.25
C      35.43       4.26      41.88
C      36.71       3.64      41.80
C      37.79       4.38      42.36
C      37.65       5.72      42.75
C      36.89       2.24      41.22
C      36.49       1.39      42.42
C      37.39       1.24      43.52
C      37.09       0.43      44.62
C      35.84      43.61      44.70
C      34.88       0.01      43.69
C      35.20       0.82      42.59
C      36.07       1.97      39.95
C      38.30       1.98      40.68
C      39.02       0.78      40.91
C      40.38       0.65      40.55
C      41.05       1.70      39.87
C      40.29       2.83      39.49
C      38.94       2.95      39.86
C      35.72       3.01      39.05
C      35.06       2.75      37.84
C      34.75       1.43      37.45
C      35.14       0.37      38.30
C      35.82       0.64      39.51
C      41.08      23.84       7.25
C      40.34      22.69       6.89
C      38.97      22.79       6.55
C      38.31      24.05       6.49
C      39.03      25.15       7.03
C      40.38      25.06       7.38
C      36.89      24.20       5.96
C      36.10      23.90       7.23
C      35.92      24.89       8.23
C      35.25      24.63       9.43
C      34.77      23.34       9.73
C      35.02      22.31       8.79
C      35.69      22.58       7.58
C      36.55      23.29       4.78
C      36.61      25.57       5.33
C      35.38      26.26       5.49
C      35.24      27.60       5.09
C      36.29      28.28       4.44
C      37.44      27.53       4.09
C      37.58      26.20       4.50
C      37.53      22.93       3.81
C      37.22      22.10       2.72
C      35.90      21.64       2.52
C      34.89      22.08       3.39
C      35.21      22.91       4.49
C      24.63      16.74      30.86
C      25.38      17.89      30.51
C      26.74      17.78      30.17
C      27.40      16.52      30.10
C      26.69      15.42      30.64
C      25.33      15.52      30.99
C      28.83      16.38      29.57
C      29.61      16.68      30.84
C      29.79      15.68      31.84
C      30.46      15.94      33.04
C      30.94      17.24      33.34
C      30.70      18.26      32.40
C      30.02      17.99      31.20
C      29.16      17.28      28.39
C      29.10      15.01      28.94
C      30.33      14.31      29.10
C      30.47      12.97      28.70
C      29.42      12.30      28.04
C      28.27      13.04      27.70
C      28.13      14.38      28.11
C      28.19      17.64      27.42
C      28.49      18.47      26.33
C      29.81      18.94      26.13
C      30.82      18.49      27.00
C      30.51      17.66      28.10
C       7.50       6.57      42.70
C       8.61       5.86      42.20
C       8.48       4.50      41.84
C       7.24       3.82      41.91
C       6.19       4.50      42.60
C       6.31       5.86      42.96
C       7.03       2.41      41.37
C       7.30       1.60      42.63
C       6.26       1.32      43.57
C       6.51       0.65      44.77
C       7.82       0.26      45.14
C       8.87       0.59      44.25
C       8.62       1.28      43.05
C       7.91       2.05      40.18
C       5.64       2.19      40.75
C       5.01       0.92      40.75
C       3.66       0.77      40.36
C       2.92       1.88      39.89
C       3.61       3.09      39.68
C       4.95       3.23      40.08
C       8.16       2.99      39.15
C       8.98       2.70      38.05
C       9.55       1.42      37.91
C       9.22       0.42      38.85
C       8.40       0.73      39.95
C      14.39      34.00      19.09
C      13.28      34.71      18.60
C      13.40      36.07      18.24
C      14.65      36.75      18.30
C      15.69      36.07      18.99
C      15.58      34.71      19.34
C      14.86      38.16      17.76
C      14.59      38.97      19.02
C      15.62      39.25      19.96
C      15.37      39.92      21.16
C      14.06      40.31      21.52
C      13.01      39.98      20.64
C      13.27      39.30      19.44
C      13.97      38.52      16.57
C      16.24      38.38      17.14
C      16.88      39.65      17.14
C      18.23      39.80      16.75
C      18.96      38.70      16.27
C      18.27      37.48      16.06
C      16.93      37.34      16.46
C      13.72      37.57      15.54
C      12.90      37.86      14.44
C      12.33      39.15      14.30
C      12.67      40.15      15.23
C      13.49      39.84      16.34
C      24.83      23.87      16.39
C      25.60      22.74      16.75
C      26.96      22.87      17.10
C      27.58      24.15      17.19
C      26.85      25.23      16.63
C      25.50      25.10      16.26
C      28.99      24.32      17.76
C      29.84      23.92      16.56
C      29.98      24.81      15.46
C      30.78      24.51      14.35
C      31.43      23.26      14.27
C      31.21      22.31      15.28
C      30.40      22.63      16.39
C      29.26      23.50      19.03
C      29.25      25.73      18.30
C      30.45      26.45      18.06
C      30.59      27.81      18.41
C      29.54      28.48      19.08
C      28.41      27.73      19.48
C      28.29      26.38      19.12
C      28.22      23.15      19.93
C      28.48      22.49      21.14
C      29.81      22.18      21.53
C      30.86      22.57      20.67
C      30.59      23.25      19.47
C      40.88      16.70      40.00
C      40.11      17.84      40.36
C      38.76      17.70      40.71
C      38.13      16.42      40.80
C      38.86      15.34      40.24
C      40.21      15.47      39.87
C      36.72      16.25      41.38
C      35.88      16.65      40.17
C      35.73      15.76      39.07
C      34.93      16.06      37.97
C      34.28      17.31      37.88
C      34.51      18.27      38.89
C      35.31      17.94      40.00
C      36.45      17.07      42.64
C      36.46      14.84      41.91
C      35.26      14.12      41.68
C      35.13      12.76      42.03
C      36.17      12.09      42.69
C      37.30      12.84      43.09
C      37.43      14.19      42.73
C      37.49      17.42      43.55
C      37.23      18.08      44.76
C      35.91      18.39      45.14
C      34.85      18.00      44.28
C      35.13      17.32      43.08
C      14.49       6.39      28.11
C      13.38       5.64      28.55
C      13.52       4.29      28.93
C      14.80       3.66      28.97
C      15.86       4.36      28.33
C      15.72       5.70      27.93
C      15.00       2.27      29.58
C      14.64       1.39      28.38
C      15.59       1.17      27.34
C      15.29       0.35      26.24
C      14.02      43.60      26.10
C      13.03       0.07      27.05
C      13.33       0.89      28.16
C      14.18       2.00      30.84
C      16.41       2.05      30.13
C      17.11       0.82      30.03
C      18.46       0.69      30.40
C      19.16       1.79      30.96
C      18.42       2.96      31.24
C      17.08       3.08      30.86
C      13.87       3.04      31.76
C      13.20       2.78      32.96
C      12.84       1.47      33.33
C      13.19       0.42      32.46
C      13.88       0.68      31.26
C       7.38      34.18       4.51
C       8.50      34.93       4.94
C       8.35      36.28       5.32
C       7.08      36.91       5.36
C       6.02      36.21       4.73
C       6.16      34.87       4.33
C       6.88      38.30       5.97
C       7.24      39.18       4.77
C       6.30      39.40       3.73
C       6.59      40.22       2.63
C       7.86      40.81       2.50
C       8.86      40.50       3.45
C       8.55      39.68       4.56
C       7.70      38.57       7.23
C       5.46      38.52       6.52
C       4.77      39.76       6.41
C       3.42      39.88       6.79
C       2.72      38.79       7.35
C       3.46      37.62       7.63
C       4.80      37.50       7.26
C       8.01      37.53       8.15
C       8.68      37.79       9.35
C       9.04      39.10       9.72
C       8.68      40.15       8.86
C       8.00      39.89       7.65
C       9.75      17.50      36.24
C      10.97      18.21      36.26
C      11.82      18.24      35.13
C      11.42      17.57      33.94
C      10.16      16.93      33.90
C       9.34      16.89      35.03
C      12.14      23.07      12.63
C      10.91      22.36      12.65
C      10.06      22.34      11.51
C      10.46      23.01      10.33
C      11.72      23.65      10.29
C      12.54      23.68      11.42
C      35.68      41.02       0.84
C      35.02      42.27       0.88
C      34.99      43.13      46.97
C      35.60      42.71      45.77
C      36.20      41.44      45.70
C      36.24      40.60      46.82
C      30.03      43.38      24.45
C      30.69      42.13      24.49
C      30.72      41.27      23.37
C      30.10      41.69      22.16
C      29.51      42.96      22.09
C      29.48      43.80      23.22
C      34.02      23.10      10.92
C      32.77      22.44      10.88
C      31.91      22.41      12.00
C      32.33      23.02      13.21
C      33.61      23.62      13.28
C      34.44      23.66      12.15
C      31.69      17.47      34.53
C      32.94      18.13      34.49
C      33.80      18.17      35.61
C      33.38      17.55      36.82
C      32.10      16.94      36.89
C      31.27      16.91      35.76
C       8.04      43.37      46.34
C       8.76      42.15      46.34
C       8.79      41.30       0.25
C       8.10      41.70       1.43
C       7.44      42.95       1.46
C       7.42      43.78       0.33
C      13.84      41.03      22.73
C      13.12      42.25      22.72
C      13.10      43.10      23.86
C      13.79      42.70      25.03
C      14.44      41.45      25.07
C      14.46      40.63      23.93
C      31.67      39.38      12.63
C      32.89      40.09      12.62
C      33.73      40.10      11.48
C      33.32      39.41      10.32
C      32.06      38.77      10.29
C      31.25      38.76      11.43
C      34.05       1.19      36.24
C      32.83       0.48      36.23
C      31.98       0.47      35.09
C      32.39       1.17      33.92
C      33.65       1.81      33.90
C      34.47       1.82      35.04
C      13.70      19.10      24.44
C      12.98      20.32      24.45
C      12.94      21.17      23.32
C      13.62      20.78      22.14
C      14.28      19.53      22.10
C      14.31      18.70      23.23
C       8.19      21.47       0.82
C       8.91      20.26       0.84
C       8.94      19.40      46.93
C       8.26      19.79      45.75
C       7.60      21.05      45.70
C       7.57      21.87      46.84
C      12.12       1.24      34.54
C      10.91       0.51      34.53
C      10.06       0.49      35.67
C      10.45       1.18      36.84
C      11.70       1.84      36.87
C      12.52       1.87      35.74
C       9.76      39.33      10.93
C      10.97      40.06      10.93
C      11.82      40.08      12.06
C      11.43      39.38      13.23
C      10.19      38.72      13.26
C       9.36      38.70      12.13
C      30.04      21.48      22.74
C      30.75      20.26      22.75
C      30.76      19.42      23.89
C      30.07      19.83      25.06
C      29.43      21.09      25.08
C      29.42      21.90      23.94
C      35.67      19.09      46.36
C      34.96      20.31      46.36
C      34.95      21.16       0.28
C      35.65      20.75       1.45
C      36.28      19.48       1.47
C      36.29      18.67       0.33
C       7.51       7.99      42.78
C       8.51       8.71      43.47
C       8.52      10.13      43.49
C       7.52      10.85      42.78
C       6.54      10.12      42.06
C       6.53       8.72      42.07
C      14.38      32.58      19.17
C      13.38      31.86      19.86
C      13.36      30.44      19.88
C      14.36      29.72      19.17
C      15.34      30.45      18.45
C      15.35      31.85      18.46
C       1.30      38.80       7.46
C       0.59      39.86       8.06
C      43.00      39.89       8.08
C      42.27      38.84       7.48
C      42.99      37.78       6.87
C       0.56      37.76       6.86
C      20.58       1.78      31.07
C      21.29       0.71      31.67
C      22.71       0.68      31.69
C      23.44       1.74      31.08
C      22.72       2.80      30.47
C      21.32       2.82      30.47
C      14.44       7.81      28.01
C      13.39       8.49      27.36
C      13.32       9.91      27.33
C      14.33      10.67      27.99
C      15.37       9.98      28.66
C      15.42       8.59      28.67
C       7.44      32.76       4.40
C       8.49      32.08       3.75
C       8.55      30.66       3.72
C       7.55      29.90       4.38
C       6.51      30.59       5.05
C       6.45      31.99       5.06
C      20.39      38.74      16.17
C      21.07      39.82      15.55
C      22.49      39.88      15.53
C      23.25      38.85      16.16
C      22.56      37.78      16.78
C      21.16      37.73      16.79
C       1.50       1.83      39.78
C       0.81       0.75      39.16
C      43.22       0.69      39.15
C      42.47       1.72      39.77
C      43.16       2.78      40.39
C       0.73       2.84      40.40
C      36.40      32.56       4.39
C      35.37      31.87       3.70
C      35.31      30.45       3.67
C      36.31      29.70       4.34
C      37.33      30.39       5.03
C      37.38      31.78       5.06
C      29.31       8.02      28.00
C      30.34       8.70      27.31
C      30.40      10.12      27.28
C      29.40      10.88      27.95
C      28.38      10.19      28.64
C      28.33       8.79      28.67
C      29.38      32.76      19.11
C      30.43      32.09      19.78
C      30.51      30.67      19.81
C      29.51      29.90      19.16
C      28.47      30.57      18.48
C      28.40      31.97      18.46
C      36.34       7.81      42.72
C      35.28       8.48      43.39
C      35.20       9.90      43.42
C      36.20      10.67      42.77
C      37.24      10.00      42.09
C      37.31       8.60      42.07
C      23.21      16.76      30.92
C      22.50      17.73      31.67
C      21.08      17.75      31.69
C      20.35      16.80      30.93
C      21.07      15.85      30.16
C      22.47      15.84      30.16
C      42.50      23.81       7.31
C      43.22      22.85       8.06
C       0.81      22.82       8.08
C       1.53      23.77       7.32
C       0.81      24.72       6.55
C      43.24      24.74       6.55
C      42.30      16.76      39.91
C      42.99      17.79      39.21
C       0.58      17.85      39.19
C       1.33      16.87      39.88
C       0.65      15.86      40.59
C      43.08      15.81      40.61
C      23.41      23.81      16.30
C      22.72      22.78      15.60
C      21.31      22.72      15.58
C      20.55      23.70      16.27
C      21.23      24.71      16.98
C      22.63      24.76      17.00
N      13.10      18.86      35.17
N       8.79      21.72      11.56
N      34.41       0.59      47.04
N      31.30      39.98      23.44
N      30.62      21.82      11.93
N      35.09      18.75      35.55
N       9.42      40.04       0.22
N      12.47       0.54      23.82
N      35.01      40.72      11.52
N      30.71      43.69      35.13
N      12.31      22.44      23.37
N       9.57      18.13      46.98
N       8.79      43.68      35.63
N      13.09      40.72      12.02
N      31.37      18.14      23.86
N      34.34      22.43       0.25
N       9.49      10.85      44.23
N      12.39      29.73      20.62
N      42.30      40.95       8.72
N      23.41      43.46      32.33
N      12.28      10.59      26.64
N       9.59      29.99       3.03
N      23.17      40.94      14.89
N      42.55      43.46      38.50
N      34.29      29.78       2.97
N      31.42      10.80      26.57
N      31.56      30.01      20.50
N      34.16      10.56      44.11
N      20.37      18.69      32.48
N       1.51      21.88       8.87
N       1.25      18.86      38.46
N      20.63      21.71      14.84
O      12.99      20.09      35.42
O      13.83      18.34      36.04
O       8.89      20.49      11.80
O       8.05      22.24      12.43
O      33.18       0.52       0.10
O      34.97       1.31       0.68
O      32.53      40.05      23.71
O      30.73      39.26      24.30
O      30.69      20.60      11.66
O      29.91      22.39      11.07
O      35.02      19.97      35.27
O      35.80      18.18      34.68
O      10.65      40.15      47.20
O       8.91      39.29      46.56
O      11.24       0.42      23.59
O      12.97       1.28      22.95
O      34.91      41.95      11.74
O      35.75      40.20      12.39
O      30.80      42.46      35.35
O      29.97       0.37      36.00
O      11.09      22.33      23.61
O      12.83      23.18      24.24
O      10.80      18.24      47.21
O       9.05      17.39       0.63
O       8.91      42.45      35.40
O       8.05       0.35      34.75
O      12.96      41.95      11.80
O      13.83      40.22      11.14
O      32.60      18.23      23.63
O      30.85      17.40      22.98
O      33.11      22.34       0.02
O      34.86      23.17      46.59
O      10.66      10.58      43.83
O       9.42      10.58      45.46
O      11.23      29.99      20.23
O      12.47      29.99      21.85
O      42.58      42.06       8.20
O      42.57      41.00       9.95
O      23.13      42.35      31.81
O      23.14      43.41      33.56
O      11.16      10.29      27.11
O      12.30      10.32      25.42
O      10.72      30.29       3.49
O       9.57      30.26       1.80
O      22.87      42.06      15.39
O      22.90      40.98      13.66
O      42.85      42.34      39.00
O      42.81      43.42      37.27
O      33.15      30.06       3.41
O      34.32      30.05       1.74
O      32.56      10.51      27.02
O      31.39      10.52      25.35
O      32.68      30.32      20.03
O      31.55      30.29      21.72
O      33.03      10.25      43.64
O      34.17      10.28      45.33
O      20.64      19.87      32.14
O      20.64      18.55      33.70
O       1.24      20.70       8.53
O       1.24      22.02      10.09
O       0.96      20.01      38.88
O       0.98      18.81      37.23
O      20.93      20.56      15.27
O      20.91      21.77      13.62
