68

Mn       0.39       3.12       1.54
Mn       0.80       3.65       9.05
Mn       0.00       0.00       0.00
Mn      -1.93       5.93       0.00
H       0.87       1.70       5.51
H       1.54      -1.92       7.74
H      -2.85       8.58       5.72
H      -3.40       9.74       3.57
H       2.90      -4.14       8.96
H      -2.90       6.55       7.95
H      -5.21       7.09       8.76
H       4.85       3.36       0.75
H       0.33       5.07       5.09
H      -0.34       8.69       2.85
H       4.05      -1.81       4.87
H       4.60      -2.97       7.02
H      -1.71      10.91       1.63
H       4.10       0.22       2.64
H       6.41      -0.32       1.83
H      -3.65       3.41       9.84
C       0.39       0.55       3.11
C       0.66      -0.14       4.41
C       0.91       0.61       5.56
C       1.23      -0.03       6.76
C       1.28      -1.43       6.81
C       0.98      -2.19       5.67
C       0.68      -1.55       4.47
C       7.49       2.86       0.26
C       1.71      -2.88      10.24
C       1.90      -3.89       9.28
C      -3.06       7.32       8.71
C      -0.48      -4.23       9.14
C      -0.69      -3.22      10.10
C       5.01       2.57       0.02
C       1.49       0.78       7.98
C       2.54       2.07       0.03
C       0.81       6.22       7.48
C       0.54       6.91       6.19
C       0.29       6.16       5.03
C      -0.04       6.80       3.83
C      -0.08       8.20       3.78
C       0.21       8.96       4.92
C       0.52       8.32       6.12
C      -6.29       3.91      10.33
C      -0.51       9.65       0.35
C      -0.70      10.66       1.32
C       4.25      -0.55       1.89
C       1.68      11.00       1.45
C       1.88       9.99       0.49
C      -3.81       4.20      10.57
C      -0.29       5.99       2.61
C      -1.34       4.70      10.56
O       0.44       1.83       3.10
O       0.15      -0.18       2.09
O       8.62       2.24       0.28
O       7.37       4.03       0.78
O       2.17       0.24       8.92
O       0.99       1.95       8.02
O       2.27       3.14       0.70
O      -2.91      -3.94      10.41
O       0.76       4.94       7.49
O       1.05       6.95       8.50
O      -7.42       4.53      10.31
O      -6.18       2.74       9.81
O      -0.98       6.54       1.67
O       0.21       4.82       2.58
O      -1.07       3.63       9.90
O       4.11      10.71       0.18
