28

La       9.81       9.74      14.15
La      10.88       5.98      14.89
H       6.91      10.66      13.38
H       7.88      11.81      13.76
H      13.78       5.06      15.67
H      12.81       3.91      15.28
C       9.36       7.14      11.98
C      10.03       3.31      14.11
C       9.54       2.08      13.44
C      12.84       7.74      13.44
C      11.33       8.58      17.07
C      10.66      12.41      14.94
C      11.15      13.64      15.61
C       7.85       7.99      15.61
O       9.17       8.39      12.17
O      10.17       6.41      12.66
O      11.29       3.60      14.05
O       9.22       4.09      14.73
O      11.86       8.38      13.98
O      12.98       6.48      13.60
O       7.74      11.09      13.11
O      11.52       7.34      16.88
O      10.53       9.31      16.39
O       9.40      12.12      14.99
O      11.48      11.63      14.32
O       8.83       7.34      15.06
O       7.72       9.24      15.45
O      12.95       4.63      15.93
