26

Ni      -1.38      13.93      24.80
Ni      -1.43      10.82      24.76
Ni      -4.02      12.20      25.92
O      -2.08      12.33      25.87
O      -2.24      15.22      26.14
O       0.35      13.80      25.92
C       1.03       9.84      23.55
C      -3.55      15.19      26.35
C       1.55      13.90      25.38
Ni       0.77      12.66      22.80
O      -1.02      12.42      23.54
O      -0.23       9.51      23.73
O       1.43      11.03      23.89
O      -0.56      15.51      23.78
C      -0.07      15.47      22.54
O      -4.20      10.14      25.99
O      -2.02       9.34      26.01
O      -3.02      10.31      23.54
H      -1.70      12.29      26.78
H      -1.66      12.47      22.80
O       1.69      13.93      24.08
C      -3.97      11.14      23.17
C      -3.29       9.25      26.40
O      -4.29      14.26      25.77
O       0.06      14.32      21.89
O      -4.25      12.20      23.89
