28

Ba      -0.96       6.99       6.73
O      -2.64       4.74       6.59
P      -2.83       9.15       8.52
P       0.92       5.62       4.27
O       0.68       6.70       8.95
Ba      -5.07       5.50       7.95
P      -2.71       8.61       3.29
P       0.81      10.68       5.75
P      -3.20       3.33       6.16
P       1.15       6.90      10.62
O      -4.63       3.07       6.55
O      -6.76       3.54       8.98
O      -3.43       4.12       9.68
P      -6.84       1.81       8.95
P      -3.39       3.87      11.41
O      -3.28       3.23       4.42
C      -3.77      10.56       7.74
C      -2.26       1.92       6.97
C       1.85       6.73       3.13
O      -1.40       9.42       8.13
O      -3.39       7.75       8.09
O       1.46       5.79       5.73
O      -5.53       6.43      10.60
O       0.73       8.94       5.70
O       0.98       3.95       3.74
O      -2.79       9.28      10.27
O      -0.50       6.05       4.08
O      -2.60       8.36       5.00
