216

Cu       2.15      10.10      11.37
Cu      -2.31      -2.01      11.37
Cu      13.63       2.10       4.38
Cu       2.23       5.94       4.39
Cu       1.89      -1.64      12.25
Cu      -2.06       9.73      12.28
Cu      13.96       6.30       3.48
Cu       1.90       1.72       3.50
Cu       2.49       8.02       7.88
Cu      -2.61       0.04       7.88
Cu       3.97      -1.31      15.74
Cu       3.97       1.39       0.02
Cu       5.96       9.70       3.49
Cu       9.91      -1.67       3.47
Cu      -6.11       1.76      12.26
Cu       5.95       6.34      12.24
Cu       5.70      -2.04       4.37
Cu      10.16      10.07       4.38
Cu      -5.78       5.96      11.36
Cu       5.62       2.11      11.36
Cu       3.88       9.37       0.00
Cu       3.88       6.67      15.73
Cu       5.36       0.04       7.86
Cu      10.46       8.02       7.87
H       2.34      -3.00       7.27
H      -2.44      11.05       7.28
H      -2.42       4.98       8.48
H       2.25       3.08       8.49
H       6.96       6.34       0.61
H       8.91       1.69       0.62
H      -7.04      -1.60      15.14
H       7.05      -6.24      15.14
H       0.89       1.72      15.14
H      -1.06       6.37      15.13
H      14.89       9.65       0.61
H       0.80      14.29       0.60
H       5.51      11.05       8.48
H      10.30      -3.00       8.47
H      10.27       3.08       7.27
H       5.60       4.98       7.25
C       2.32      -3.22      10.40
C       2.40      -4.08       9.23
C       2.39      -3.92       7.84
C       2.34      10.73       7.34
C       2.50      10.09       6.00
C      -2.31      -4.66      10.41
C      -2.38      -3.81       9.23
C      -2.51      11.98       7.84
C      -2.46      -2.67       7.34
C      -2.60      -2.03       5.99
C      -2.38       4.74       5.35
C      -2.44       3.89       6.52
C      -2.44       4.05       7.92
C      -2.52       2.75       8.41
C      -2.67       2.10       9.76
C       2.27       3.31       5.36
C       2.32       4.16       6.53
C       2.31       4.00       7.93
C       2.40       5.31       8.42
C       2.53       5.95       9.77
C      -0.74      -1.60      13.23
C       0.12      -1.53      14.40
C       7.89       6.37       0.04
C       9.20       6.46       0.54
C       9.84       6.63       1.89
C       0.74      -6.23      13.24
C      -0.11      -6.30      14.41
C       7.98       1.62       0.06
C       6.68       1.52       0.56
C       6.04       1.38       1.91
C       0.66       6.32       2.52
C      -0.20       6.38       1.35
C      -7.96      -1.54      15.70
C       6.67      -1.44      15.20
C       6.03      -1.30      13.85
C      -0.74       1.69       2.53
C       0.12       1.61       1.36
C       7.97      -6.28      15.71
C      -6.66      -6.38      15.22
C      -6.02      -6.54      13.87
C       8.59       9.66       2.52
C       7.73       9.59       1.35
C      -0.04       1.69      15.70
C      -1.34       1.59      15.21
C      -1.98       1.43      13.86
C       7.11      14.29       2.51
C       7.97      14.35       1.33
C      -0.13       6.44      15.69
C       1.17       6.54      15.19
C       1.81       6.67      13.84
C       7.19       1.73      13.22
C       8.05       1.68      14.40
C      15.82       9.60       0.05
C       1.18       9.50       0.54
C       1.82       9.36       1.89
C       8.59       6.37      13.22
C       7.73       6.45      14.39
C      -0.12      14.34       0.04
C      14.52      14.44       0.53
C      13.87      14.60       1.87
C       5.54      11.28       5.35
C       5.46      12.14       6.52
C       5.46      11.97       7.91
C       5.51      -2.67       8.40
C       5.35      -2.03       9.75
C      10.16      12.72       5.34
C      10.23      11.86       6.52
C      10.36      -3.92       7.91
C      10.31      10.73       8.41
C      10.45      10.09       9.76
C      10.23       3.32      10.40
C      10.29       4.17       9.22
C      10.29       4.00       7.83
C      10.37       5.31       7.33
C      10.52       5.96       5.98
C       5.59       4.75      10.38
C       5.53       3.89       9.21
C       5.54       4.06       7.82
C       5.45       2.75       7.33
C       5.32       2.11       5.98
N       2.34      10.54       9.53
N       2.40       9.86       8.39
N      -2.49      -2.47       9.53
N      -2.53      -1.80       8.38
N      -2.51       2.55       6.23
N      -2.55       1.88       7.37
N       2.42       5.50       6.23
N       2.46       6.18       7.37
N       1.45      -1.44      14.10
N       2.13      -1.39      15.24
N      -1.45      -6.41      14.12
N      -2.12      -6.45      15.26
N      14.42       6.48       1.64
N      13.74       6.52       0.50
N       1.46       1.52       1.66
N       2.13       1.47       0.52
N       6.40       9.50       1.65
N       5.72       9.45       0.51
N       9.30      14.46       1.63
N       9.97      14.50       0.49
N      -6.56       1.58      14.10
N      -5.89       1.54      15.24
N       6.40       6.54      14.09
N       5.72       6.59      15.23
N       5.51      -2.48       6.21
N       5.45      -1.80       7.36
N      10.34      10.53       6.22
N      10.39       9.86       7.36
N      10.36       5.51       9.52
N      10.40       6.18       8.38
N       5.44       2.56       9.51
N       5.39       1.88       8.37
O       2.32      -3.80      11.56
O       2.21      -1.95      10.35
O       2.55       8.78       6.04
O       2.62      10.80       4.99
O      -2.30      -4.06      11.56
O      -2.38      10.02      10.37
O      -2.64      -0.72       6.02
O      13.08      13.21       4.98
O      13.57       4.15       4.19
O      -2.30       6.01       5.39
O      -2.70       0.79       9.72
O      -2.80       2.81      10.77
O       2.25       3.89       4.20
O       2.20       2.03       5.41
O       2.55       7.26       9.73
O       2.65       5.24      10.77
O      -0.15      -1.60      12.07
O      -2.01      -1.70      13.28
O      11.15       6.66       1.85
O       9.13       6.76       2.90
O      -0.01       9.74      12.08
O       2.01      -6.16      13.28
O       4.73       1.36       1.87
O       6.75       1.26       2.91
O       0.06       6.32       3.68
O       1.93       6.25       2.48
O       4.72      -1.27      13.89
O       6.75      -1.18      12.85
O      -0.15       1.70       3.69
O      13.94       1.79       2.47
O      -4.71      -6.57      13.91
O       9.05       9.26      12.87
O       8.00       9.66       3.68
O       9.86       9.76       2.47
O      -3.30       1.39      13.90
O      -1.28       1.30      12.85
O       7.86      -1.68       3.66
O       5.84      14.21       2.46
O       3.13       6.70      13.88
O       1.10       6.79      12.84
O       7.79       1.74      12.07
O       5.92       1.81      13.26
O       3.13       9.32       1.86
O       1.10       9.24       2.90
O       8.01       6.36      12.06
O      -6.09       6.27      13.27
O      12.56      14.63       1.84
O      -1.20      -1.20       2.88
O       5.53      11.86       4.19
O       5.64      10.00       5.40
O       5.30      -0.72       9.71
O       5.23      -2.74      10.76
O      10.16      12.12       4.18
O      10.24      -1.96       5.38
O      10.50       8.78       9.72
O      -5.23      -5.15      10.76
O      -5.72       3.91      11.55
O      10.15       2.05      10.35
O      10.55       7.27       6.02
O      10.65       5.25       4.97
O       5.61       4.17      11.54
O       5.65       6.03      10.34
O       5.31       0.80       6.02
O       5.20       2.82       4.97
