13

N      10.39       2.84       9.85
C       8.94       6.16       7.43
Zn       8.72       3.98       9.58
C       9.43       4.22       6.65
C      11.69       3.21       9.98
C       9.85       4.87      12.22
C      10.35       1.56      10.32
C       8.45       6.37      11.59
N       6.87       3.16       9.52
C       6.09       2.73      10.53
C       6.03       3.27       8.45
N       8.85       4.83       7.71
N       8.97       5.18      11.22
