13

C       9.58       6.31       6.19
C       9.43       4.22       6.65
N      12.47       6.20       4.46
C      12.78       6.81       5.64
Zn      11.18       4.63       4.19
C      12.94       7.05       3.51
N      12.48       3.07       3.91
C      12.79       2.47       2.73
C      12.94       2.22       4.85
N       9.89       4.20       2.65
C       9.58       2.96       2.17
C       9.43       5.06       1.72
N       9.89       5.07       5.72
