48

H       6.30       1.27       4.34
C       6.58       1.69       1.81
C       6.49       4.53       1.05
C       6.67       6.02       0.75
C       5.45       1.36       6.82
C       4.02       1.15       6.33
C       6.34       3.20       9.04
C       5.06       3.07       9.86
C       6.42       7.07       5.81
C       7.80       7.30       5.19
H       5.71       6.57       0.81
H       7.43       6.47       1.43
N       5.23       6.18       3.19
H       7.37       4.02       0.65
H       5.66       4.15       0.44
H       7.03       6.14      -0.29
O       7.18       6.43       9.04
H       3.33       1.85       6.85
H       3.94       1.31       5.24
H       3.70       0.11       6.55
H       6.12       0.63       6.33
H       5.47       1.07       7.88
O       4.83       6.46       8.88
O       7.78       1.21       1.50
H       4.40       6.29       3.81
H       5.83       7.03       3.19
O       5.43       1.24       1.35
H       5.30       2.66      10.86
H       4.59       4.07       9.99
H       4.33       2.40       9.36
H       6.88       2.24       9.03
H       7.03       3.89       9.58
H       8.59       6.93       5.88
H       7.92       6.78       4.22
H       7.96       8.39       5.03
H       5.62       7.56       5.24
H       6.43       7.64       6.75
C       6.03       6.05       8.52
C       6.47       2.74       2.85
C       6.09       5.10       7.37
C       5.92       2.79       6.56
C       6.07       3.71       7.63
C       6.14       5.58       6.03
C       6.09       4.64       4.94
C       6.10       3.25       5.22
C       6.28       2.33       4.16
C       6.33       4.11       2.52
C       5.99       5.03       3.56
