15

H      10.35      13.59       0.14
C      14.13      11.59      -1.71
C      12.05      12.59      -0.76
N      15.64      10.52      -2.73
N      13.48      10.63      -2.41
C      14.17      13.53      -0.14
H      14.00      15.20       1.22
H      11.45      11.86      -1.30
N      14.45       9.98      -3.04
H      15.26      13.55      -0.19
C      11.43      13.55       0.04
N      12.13      14.47       0.73
N      15.47      11.53      -1.89
C      13.45      12.57      -0.87
C      13.47      14.45       0.64
