15

C       2.17      10.11      16.00
C       0.62       8.72      14.21
N      -0.87      10.36      12.17
H       1.54       7.00      15.17
N       2.21       8.76      16.03
H       2.83      10.63      16.69
C       1.45       8.09      15.13
N      -1.56      11.37      11.66
C      -0.32      10.86      13.30
N      -0.67      12.15      13.50
C       1.36      10.82      15.12
H       0.03       8.14      13.51
C       0.55      10.12      14.21
N      -1.45      12.44      12.46
H       1.35      11.91      15.13
