15

H       5.90      25.62       0.41
H       9.75      25.06       1.84
C       7.11      22.92       2.11
C       6.18      23.73       1.43
C       8.75      24.64       1.71
C       8.42      23.40       2.23
C       6.60      24.96       0.92
C       6.70      21.64       2.67
H       5.15      23.40       1.29
N       7.86      25.43       1.06
N       5.46      21.38       3.13
H       9.17      22.80       2.75
N       6.75      19.63       3.33
N       5.52      20.11       3.54
N       7.52      20.58       2.79
