15

C      19.14      20.93      21.43
C      18.71      22.19      21.03
N      19.82      18.44      23.02
H      19.40      22.90      20.58
N      18.58      16.65      22.85
H      15.56      22.19      21.95
H      16.15      19.84      22.63
H      20.17      20.62      21.28
N      19.76      17.13      23.26
N      17.83      17.64      22.36
C      16.56      21.79      21.78
N      17.44      22.63      21.21
C      16.89      20.50      22.18
C      18.21      20.05      22.03
C      18.62      18.73      22.47
