15

C       8.33      13.14       4.12
N       7.54      14.23       4.23
C       7.92      11.81       4.56
N       8.29      15.21       3.74
H       5.27       9.68       4.63
H       9.88      11.25       5.31
N       9.47      14.74       3.33
H       5.86      12.02       3.95
C       6.60      11.37       4.41
C       8.42       9.68       5.56
C       6.26      10.08       4.80
H       9.10       8.97       6.01
N       7.15       9.24       5.38
N       9.53      13.43       3.57
C       8.84      10.94       5.16
