15

H       4.74      11.80      25.52
N       4.98      12.42      29.58
N       5.60      10.91      28.04
C       4.87      12.02      28.29
C       3.25      13.31      25.13
C       4.07      12.54      25.95
N       5.81      11.54      30.12
N       2.40      14.26      25.60
C       2.34      14.43      26.94
N       6.18      10.63      29.21
C       3.12      13.71      27.83
H       3.04      13.88      28.90
H       3.24      13.18      24.05
C       4.02      12.74      27.34
H       1.62      15.16      27.30
