15

H       1.60      26.50      14.16
C       4.16      23.88      13.05
H       4.87      23.14      12.69
H       3.05      25.42      15.87
C       3.15      25.16      14.82
N       5.83      23.19      17.30
H       3.33      24.33      11.09
C       2.35      25.77      13.86
C       4.09      24.19      14.41
N       4.94      23.98      16.71
C       4.94      23.57      15.42
N       6.34      22.33      16.41
C       3.32      24.55      12.15
N       5.79      22.55      15.21
N       2.43      25.49      12.54
