15

C      10.84      21.74      12.38
N       9.42      21.51      14.42
N       8.84      19.43      14.12
H      10.32      23.73      13.08
H      11.64      19.96      11.45
C       9.97      21.01      13.29
N       9.62      19.72      13.09
N      12.50      23.11      10.56
C      11.74      23.78      11.45
C      10.91      23.14      12.38
C      11.65      21.04      11.47
N       8.73      20.50      14.93
H      11.83      24.86      11.42
C      12.46      21.75      10.59
H      13.12      21.24       9.90
