15

N       2.26      19.89       2.86
N      -0.29      23.62       0.49
H       1.64      23.12       2.06
C       1.55      22.04       2.03
C       1.40      19.31       1.99
H       1.40      18.22       1.99
H      -0.11      19.52       0.46
C       2.33      21.24       2.85
C       0.58      20.03       1.13
N      -1.55      22.99      -1.18
C       0.63      21.43       1.15
N      -0.98      21.87      -0.72
N      -1.13      24.03      -0.44
H       3.06      21.69       3.52
C      -0.21      22.28       0.31
