15

C       3.12       2.81       8.50
N       2.40       0.71       9.44
C       4.87       2.96       6.76
C       3.25       0.08       8.60
C       4.02       2.16       7.64
N       5.81       4.68       5.96
N       6.18       3.61       5.23
H       3.24      -1.01       8.66
N       5.60       2.51       5.72
N       4.98       4.30       6.92
H       1.62       2.55      10.02
C       2.34       2.06       9.37
H       3.04       3.89       8.48
H       4.74       0.20       7.04
C       4.07       0.75       7.69
