15

C       4.94      19.39      20.43
N       4.94      20.73      20.60
H       3.33      15.27      21.95
N       5.83      21.17      19.71
N       2.43      16.91      22.83
C       4.09      18.51      21.22
N       5.79      19.00      19.46
H       3.05      20.16      22.17
N       6.34      20.14      19.03
H       4.87      16.63      20.49
C       4.16      17.11      21.16
H       1.60      18.67      23.54
C       3.32      16.36      21.97
C       2.35      18.25      22.87
C       3.15      19.08      22.10
