15

C       6.54      27.71      17.86
H       9.82      27.69      18.77
N       9.44      30.95      16.48
N       8.23      31.45      16.76
H       5.20      26.07      18.28
C       8.78      27.37      18.66
H       5.80      28.31      17.33
H       9.04      25.51      19.74
C       6.20      26.48      18.41
C       7.86      28.17      17.96
N       7.09      25.71      19.07
N       7.47      30.52      17.32
C       8.27      29.44      17.38
C       8.35      26.17      19.21
N       9.50      29.67      16.87
