15

N      17.58      14.59      14.51
H      15.67      13.84      14.15
C      16.39      14.11      14.93
C      18.48      14.96      15.43
C      16.71      14.21      18.67
H      18.99      15.20      17.52
N      15.59      13.63      19.15
N      15.71      13.72      20.47
N      17.52      14.65      19.67
C      18.24      14.88      16.80
C      16.08      13.96      16.27
H      15.11      13.56      16.57
H      19.43      15.34      15.04
N      16.87      14.33      20.78
C      17.01      14.35      17.25
