15

H      20.11       8.44       2.71
N      18.52       9.74      -1.36
N      17.38       8.49       4.71
C      16.83       9.33       2.52
N      17.76       9.36      -0.34
C      16.49       9.01       3.83
N      19.79       9.95       0.41
H      16.09       9.74       1.84
C      18.56       9.49       0.74
H      19.33       7.88       5.02
C      18.15       9.15       2.10
C      19.07       8.61       3.01
H      15.49       9.21       4.22
N      19.73      10.11      -0.91
C      18.64       8.28       4.28
