15

N       6.58      17.53       5.81
N       5.30      18.23       7.44
H       8.70      16.66       9.07
C       6.42      17.65       7.92
H       4.82      18.30      10.02
C       5.79      17.90      10.32
H       5.38      18.02      12.44
N       5.42      18.15       6.11
C       6.10      17.76      11.66
H       9.14      16.53      11.55
C       7.95      16.99       9.79
N       7.29      17.27      12.08
N       7.23      17.21       6.92
C       8.19      16.90      11.15
C       6.72      17.51       9.34
