86

Cu       1.17      11.74       9.67
Cu       1.18      11.74      14.39
Cu       3.49       3.91       6.37
Cu       3.49       3.91       1.65
H       3.50      10.43      10.87
H       1.87       8.72      10.19
H       4.02       8.41       6.43
H       0.94      10.06       7.31
H       3.52      13.03      10.86
H       0.48      14.76      10.18
H       2.97      15.07       6.43
H       1.40      13.42       7.32
H       3.52      10.45      13.20
H       0.48       8.73      13.88
H       2.96       8.41       1.59
H       1.40      10.07       0.71
H       3.50      13.05      13.19
H       1.87      14.76      13.87
H       4.02      15.07       1.59
H       0.94      13.43       0.70
H       1.17       5.22       5.17
H       2.80       6.93       5.85
H       0.64       7.24       9.61
H       3.72       5.59       8.73
H       1.14       2.62       5.18
H       4.19       0.89       5.86
H       1.70       0.58       9.61
H       3.27       2.23       8.72
H       1.14       5.20       2.84
H       4.18       6.92       2.16
H       1.70       7.24      14.45
H       3.27       5.58      15.33
H       1.17       2.60       2.85
H       2.80       0.89       2.17
H       0.65       0.58      14.45
H       3.72       2.22      15.34
C       3.58       9.95       9.89
C       2.65       9.00       9.49
C       2.79       8.34       8.23
C       3.85       8.81       7.43
C       0.08       9.75       7.90
C       3.43      13.52       9.89
C       4.35      14.47       9.49
C       4.21      15.14       8.23
C       3.14      14.68       7.43
C       2.26      13.72       7.90
C       3.44       9.96      14.17
C       4.36       9.01      14.57
C       4.21       8.34      15.83
C       3.14       8.81       0.59
C       2.26       9.76       0.12
C       3.58      13.53      14.16
C       2.65      14.48      14.56
C       2.79      15.13      15.83
C       3.85      14.68       0.59
C       0.08      13.73       0.12
C       1.09       5.70       6.14
C       2.01       6.65       6.55
C       1.88       7.31       7.81
C       0.81       6.85       8.61
C       4.58       5.90       8.14
C       1.23       2.13       6.15
C       0.31       1.18       6.55
C       0.46       0.51       7.81
C       1.53       0.97       8.61
C       2.41       1.93       8.13
C       1.23       5.69       1.87
C       0.31       6.64       1.47
C       0.45       7.31       0.21
C       1.53       6.84      15.45
C       2.41       5.89      15.92
C       1.09       2.12       1.88
C       2.01       1.17       1.48
C       1.87       0.52       0.21
C       0.81       0.97      15.45
C       4.59       1.92      15.92
N       4.64      10.32       9.14
N       2.37      13.15       9.14
N       2.38      10.33      14.93
N       4.64      13.16      14.92
N       0.03       5.33       6.90
N       2.29       2.50       6.90
N       2.29       5.32       1.11
N       0.02       2.49       1.12
Cl       1.16      11.68      12.03
Cl       3.50       3.97       4.01
