34

Zn       3.39       2.56       3.36
Zn       1.47       3.92       5.14
H       4.94      -0.83       4.49
H      -1.51       5.50       3.94
H      -0.08       1.93       8.11
H       6.37       4.14       2.15
H      -0.08       7.31       4.01
H       6.37       0.98       4.56
H       4.94       4.55       0.39
H      -1.51       2.34       6.35
C       4.78       6.56       4.22
C       5.88      -0.97       4.39
C      -1.86       6.38       4.07
C       3.86       5.37       4.19
C       0.08       4.15       1.06
C      -1.02       1.99       8.28
C       6.72       4.24       1.27
C       1.00       3.87       2.21
C       0.08      -0.08       4.28
C      -1.02       7.45       4.11
C       6.72       0.10       4.43
C       1.00       1.11       4.31
C       4.78       2.33       7.44
C       5.88       4.49       0.23
C      -1.86       2.24       7.23
C       3.86       2.61       6.29
O       4.23       4.38       3.50
O       2.08       3.28       1.97
O       0.63       4.26       3.35
O       2.78       5.45       4.81
O       0.63       2.10       5.00
O       2.78       3.20       6.53
O       4.23       2.22       5.15
O       2.08       1.03       3.69
