26

O       9.59       2.52       7.82
O      11.52       1.74       6.72
O      12.16       2.37       4.67
O       6.35       3.88       2.84
O       4.60       2.76       1.91
H      10.43       2.10       3.11
H       5.15       0.94       3.68
H       5.93       3.25       5.54
H       5.25       1.56       5.98
H      13.10       2.36       5.07
H       4.65       3.45       1.17
C       8.47       2.35       7.32
C       8.35       1.65       3.12
C       7.25       1.37       3.94
C       7.31       1.60       5.29
C       9.72       1.95       5.13
C       9.56       1.96       3.74
C       5.83       1.80       3.85
C       5.93       2.16       5.33
C       8.51       1.89       5.94
C       8.38       1.13       1.77
C      11.16       2.04       5.59
C       5.60       2.91       2.87
O       9.53       0.86       1.31
O       7.32       0.63       1.29
O       7.38       2.71       7.93
