20

O       6.91       6.73       8.06
H       3.96       4.97       6.09
H       3.70       5.08       3.73
H       5.36       9.31       3.65
H       7.23       9.21       3.56
H       7.31       9.15       5.96
H       5.44       9.09       6.04
C       5.24       6.60       3.39
C       6.21       7.37       4.03
C       6.34       7.29       5.41
C       4.58       5.67       5.54
C       4.45       5.72       4.17
C       6.29       8.85       4.03
C       6.37       8.76       5.53
C       5.53       6.45       6.18
C       5.99       6.05       7.50
C       4.87       6.76       1.99
O       5.64       4.89       7.88
O       5.05       7.86       1.32
O       4.15       5.82       1.59
