13

C       3.25       5.93      20.79
C      -0.32       6.39      16.95
Zn       0.83       7.16      19.51
C       0.86       9.00      21.78
N       0.64       8.87      20.46
C      -0.13       4.40      20.21
C       0.69       8.23      16.64
C       0.23      10.11      20.05
C       3.38       5.80      18.66
C      -1.59       5.85      20.84
N      -0.36       5.74      20.28
N       2.64       6.32      19.68
N       0.38       7.31      17.58
