13

C       6.83      13.15      13.57
C      10.64      11.13      13.73
C      10.13      15.16      14.51
C      11.87      11.62      12.05
C       7.13      11.66      12.13
N       7.69      12.74      12.62
N       9.51      13.75      10.19
C      10.47      14.14       9.38
C       9.30      16.30      13.00
N      10.77      12.01      12.68
C       8.39      13.66       9.45
N       9.73      15.07      13.25
Zn       9.50      13.44      12.16
