13

C       3.02      17.63       6.17
C       1.60      17.72       7.75
C       4.10      13.23       6.55
Zn       1.56      14.97       6.52
N       0.26      15.11       5.03
C      -0.81      14.43       4.69
N       2.11      16.87       6.89
C       0.96      14.14       9.38
C       0.13      16.23       4.29
N       0.59      14.26       8.11
N       3.21      14.07       5.93
C      -0.83      14.02       8.15
C       3.83      14.39       4.80
