13

C       0.88      22.33      22.75
C      -2.44      19.02      23.55
N      -1.74      19.73      24.40
C      -1.44      18.79      25.26
C      -0.66      22.79      21.54
N      -0.35      22.15      22.76
N      -3.21      22.46      24.22
C      -3.87      22.90      23.19
Zn      -1.44      21.66      24.34
C       0.48      23.28      26.05
N      -0.51      22.31      25.95
C      -4.26      22.02      24.97
C      -0.88      22.10      27.24
