13

C       3.32      26.44      20.68
Zn       3.28      29.28      19.88
C       2.15      27.53      21.99
C       4.32      28.14      17.20
N       3.01      27.65      20.95
N       4.28      30.59      21.00
N       4.50      28.88      18.33
C       0.81      29.51      18.28
C       5.68      29.47      18.17
N       1.54      29.98      19.25
C       0.91      31.16      19.53
C       5.16      30.30      21.96
C       4.35      31.93      20.86
