13

C       9.15      24.08      36.62
Zn       6.26      24.64      37.32
N       6.84      26.27      38.26
N       7.86      23.69      36.65
N       4.98      25.03      35.85
N       5.26      23.51      38.62
C       5.08      23.77      39.92
C       4.62      22.31      38.42
C       6.36      27.51      38.19
C       7.76      26.35      39.25
C       7.89      22.42      36.23
C       3.63      24.90      35.89
C       5.22      25.48      34.64
