13

N       4.76      16.41      33.16
C       7.45      17.01      36.54
N       6.59      17.42      35.59
N       3.50      18.14      35.65
C       7.14      18.50      35.10
N       4.55      15.08      36.22
C       2.40      18.53      35.02
Zn       4.77      16.72      35.13
C       4.98      13.86      35.96
C       5.88      16.50      32.42
C       3.64      19.03      36.70
C       3.80      16.02      32.35
C       4.14      15.00      37.48
