13

C       1.74      12.53      29.14
C       5.57      15.73      27.66
N       4.50      15.04      28.00
C       4.62      13.93      27.26
Zn       3.20      15.19      29.49
C       0.66      16.93      29.52
N       1.55      16.09      28.89
C       3.15      12.43      30.72
C       0.93      15.77      27.77
C       5.59      16.13      31.12
N       2.64      13.29      29.86
N       4.17      15.89      31.08
C       3.80      16.02      32.35
