13

C       8.66      24.08       1.19
N       8.94      25.31       0.73
N       9.93      24.95      -2.41
C       9.92      28.38      -2.10
N       6.86      25.50      -1.84
Zn       8.70      25.87      -1.14
C       9.84      25.02      -3.76
C      11.02      24.23      -2.18
N       9.05      27.82      -1.26
C       9.33      26.00       1.83
C       8.51      28.87      -0.58
C       6.35      24.31      -2.13
C       5.97      26.41      -2.23
