13

N       8.93      29.34      14.86
Zn       7.95      30.05      16.44
C       5.42      28.31      16.41
N       6.31      29.15      17.04
N       7.40      31.95      16.08
C       8.56      29.22      13.59
C      10.32      29.51      18.28
C       5.68      29.47      18.17
C       7.91      32.80      15.22
C       6.49      32.71      16.79
C      10.35      29.10      14.81
C       9.38      31.31      18.68
N       9.26      30.19      17.94
