13

C       9.15      11.01      38.80
C       7.91       9.67      37.67
Zn      10.19       8.16      38.92
N       9.74       7.78      40.80
C       9.81       6.70      36.36
N       9.06       9.69      38.36
C      12.55       9.67      37.94
N       9.91       6.63      37.71
C      13.09       8.59      39.64
C       8.85       8.52      41.56
C       9.79       5.30      37.98
N      12.06       8.84      38.84
C      10.40       7.02      41.67
