13

C       7.91       9.67      37.67
N       4.29       9.98      38.10
C       4.36      13.74      37.94
N       7.28      10.84      37.63
C       3.03       9.67      37.94
N       5.37      10.52      35.04
C       4.98      13.86      35.96
C       4.29      10.40      34.27
N       4.87      13.00      36.93
C       4.66       9.29      39.19
C       8.07      11.67      38.36
C       6.38      10.14      34.20
Zn       5.44      11.11      36.93
