13

Zn       5.59       7.92      26.42
C       4.43       8.69      28.99
C       5.62       6.08      24.16
C       5.45       6.85      29.30
C       8.14       9.28      27.28
C       8.01       9.15      25.15
C       4.99       4.97      25.89
N       5.13       7.77      28.36
N       4.40       9.34      25.65
C       3.17       9.23      25.10
C       4.63      10.68      25.73
N       7.39       8.76      26.26
N       5.40       6.21      25.47
