51

H       4.33       3.92       1.55
H       3.70       5.57       3.30
H       6.54       3.76       6.00
H       7.26       2.21       4.18
H       4.36       8.70      13.29
H       4.61       8.21      10.85
H       8.53       6.57      11.58
H       8.27       7.02      14.02
H       7.35       1.51      12.20
H       6.54       2.63      10.14
H       2.49       2.31      11.58
H       3.32       1.23      13.67
H       6.18       7.26       7.22
H       5.48       5.03      10.85
H       3.76       3.67       7.13
O       5.32       1.61       0.88
O       7.38       1.44       1.81
O       5.08       8.68      15.75
O       7.06       7.78      16.10
O       7.08       0.73      14.65
O       4.92       0.22      15.10
O       4.71       5.73       5.68
O       6.76       7.14       9.73
O       3.93       3.17       9.64
C       6.21       1.94       1.74
C       5.83       2.96       2.75
C       4.82       3.90       2.52
C       4.46       4.81       3.50
C       5.07       4.75       4.76
C       6.07       3.80       5.03
C       6.46       2.93       4.01
C       6.15       8.12      15.25
C       6.30       7.88      13.82
C       5.26       8.23      12.92
C       5.40       7.95      11.56
C       6.58       7.35      11.10
C       7.62       7.03      11.96
C       7.48       7.29      13.33
C       5.81       0.72      14.36
C       5.39       1.33      13.09
C       6.29       1.71      12.08
C       5.84       2.33      10.92
C       4.47       2.57      10.77
C       3.55       2.15      11.73
C       4.01       1.54      12.89
C       4.94       5.50       7.04
C       5.71       6.43       7.73
C       5.90       6.24       9.10
C       5.33       5.16       9.78
C       4.58       4.24       9.04
C       4.36       4.39       7.67
