18

Zn       0.74      11.60      12.31
Zn      -2.85      12.34      12.84
O      -2.93      11.15      11.20
C       2.76      10.81      11.05
O       1.62      10.25      10.90
O       2.83      11.76      11.92
C      -0.82      13.78      11.17
O       0.10      12.92      10.97
O      -1.68      13.75      12.11
S       1.38      12.30      15.28
S      -3.49      11.64       9.87
O       0.82      12.79      13.95
C      -4.87      13.13      14.09
O      -3.73      13.69      14.24
O      -4.94      12.18      13.23
C      -1.29      10.16      13.97
O      -2.21      11.02      14.17
O      -0.43      10.19      13.03
