26

Zn       1.53      -0.08       9.07
Zn      -1.87       0.85       9.58
O       1.87      -2.47       9.48
Zn       3.87      -2.34       9.58
O      -0.21      -0.58      10.26
O      -1.76       0.30      11.60
O       3.16       0.20       7.79
O       4.82      -1.31       8.26
C      -0.84      -0.79       7.27
C       3.33      -0.37      11.60
C       0.27       2.75       8.91
C       1.69      -3.38       8.54
C      -0.69      -0.38      11.44
C       4.33      -0.27       7.68
C      -3.85       2.75       8.60
C      -4.82       1.30      10.13
C       5.65      -4.58       8.90
C       5.00      -4.56      11.13
N      -3.73       1.70       9.44
N       4.95      -4.01       9.90
O       0.42      -0.70       7.44
O      -1.77      -0.10       7.82
O       4.00      -1.42      11.34
O       2.58       0.29      10.80
O      -0.82       2.52       9.56
O       1.22       1.94       8.70
