26

O       8.20       6.18       6.03
Zn       2.56       8.43       4.27
Zn       4.90       6.17       4.78
O       2.43       7.51       2.51
Zn       8.30       5.24       4.27
O       3.84       5.80       3.05
O       7.25       3.57       4.29
O       5.21       4.14       5.15
C       4.74       9.46       5.31
C       7.12       6.47       2.41
C       2.10       6.35       6.17
C      10.28       3.34       5.25
C      11.25       4.79       3.72
C       0.77      10.66       4.95
C       1.43      10.65       2.72
C       7.27       6.88       6.58
C       3.10       6.45       2.25
C       6.16       3.34       4.94
N      10.15       4.39       4.41
N       1.48      10.09       3.95
O       4.56       8.55       4.37
O       6.64       6.67       3.58
O       8.18       5.79       2.25
O       3.27       5.89       6.06
O       1.61       7.39       5.59
O       6.01       6.79       6.41
