128

Cr       0.15       7.61       9.40
Cr       3.81       1.00       9.41
Cr       7.23       1.11       9.39
Cr       5.61       8.34       0.00
Cr       3.86       5.60      18.78
Cr       7.13       5.26       0.02
H       3.49       2.42      12.98
H       0.51       2.15      14.91
H       0.69       1.79      12.46
H       9.94       0.85      16.25
H      10.25       0.15      11.37
H       0.96       6.48      16.24
H       1.28       3.82      12.94
H       2.68       5.41      11.74
H       0.41       4.36      15.18
H      -0.28       8.43      13.28
H      -0.66       8.23      15.70
H       6.12       7.40      14.94
H       6.49       7.66      12.53
H       7.41       2.01       5.60
H       3.40       3.45       6.07
H       0.62       7.24       5.57
H       0.98       7.13       3.18
H       4.79       9.12       3.68
H       4.40       9.27       6.09
H       2.89       0.70       5.60
H       2.66       0.41       3.22
H      -2.40       5.66       3.69
H      -2.09       5.96       6.10
H       0.96       4.49       3.76
H      -1.47       5.28      15.63
C      -2.12       8.34      11.36
C       5.58       2.70      11.32
C       2.40       8.25      11.28
C      -2.14       8.34       7.44
C       5.56       2.58       7.41
C       2.23       8.29       7.41
C       4.35       2.91      13.42
C       4.38       3.05      14.81
C       5.57       3.52      15.41
C       6.71       3.81      14.59
C       6.57       3.88      13.21
C       5.44       3.30      12.63
C       3.07       8.13      15.38
C      10.02       0.60      15.20
C      -0.09       1.40      14.43
C      -0.00       1.22      13.06
C      10.14       0.28      12.44
C       3.84       8.98      13.19
C       3.82       9.08      14.61
C       2.62       6.91      13.32
C       2.34       7.13      14.67
C       2.32       5.66      12.74
C       1.53       4.75      13.41
C       1.03       5.07      14.66
C       1.40       6.26      15.28
C       3.10       7.98      12.56
C      -1.27       8.18      13.64
C      -1.48       8.07      15.01
C      -2.76       7.80      15.47
C      -3.83       7.63      14.58
C      -3.63       7.77      13.22
C      -2.35       8.05      12.75
C       6.51       2.44       5.17
C       6.39       2.47       3.79
C       5.23       3.04       3.21
C       4.10       3.30       4.03
C       4.24       3.25       5.42
C       5.46       2.87       5.99
C       1.54       7.65       5.17
C       1.72       7.61       3.80
C       2.91       8.11       3.26
C       3.86       8.74       4.09
C       3.66       8.80       5.46
C       2.52       8.21       6.00
C      -2.54       9.22       5.20
C      -2.64       9.06       3.84
C      -2.63       7.78       3.28
C      -2.40       6.66       4.10
C      -2.26       6.82       5.48
C      -2.39       8.10       6.03
C       3.44       7.81      16.80
C       5.60       3.91      16.82
C      -3.05       7.72      16.87
C       3.28       7.71       1.92
C       5.40       3.73       1.92
C      -3.20       7.61       1.96
C       2.74       3.58       3.49
C       8.07       3.96      15.13
N       7.46       1.94       2.99
N       3.31       2.49      15.58
N       7.62       4.42      12.38
O       1.56       7.38      10.90
O      -1.19       7.68      10.80
O      -2.54       9.45      10.92
O       4.56       2.16      10.80
O       6.76       2.45      10.90
O       2.40       9.44      10.78
O       1.52       7.36       7.88
O      -1.22       7.67       8.01
O      -2.57       9.43       7.90
O       4.53       2.14       8.01
O       6.72       2.43       7.88
O       2.37       9.42       7.99
O       0.09       9.59       9.40
O      -3.78       8.65      17.30
O       4.41       8.43      17.39
O       3.00       6.71      17.26
O       4.56       4.42      17.39
O       6.75       4.06      17.30
O      -3.01       6.56      17.42
O      -3.94       8.54       1.52
O       4.25       8.33       1.39
O       2.84       6.60       1.49
O       4.40       4.32       1.39
O       6.59       3.95       1.52
O      -3.16       6.46       1.42
O       5.48       6.36       0.00
O       8.70       2.11       3.35
O       7.20       1.28       1.90
O       2.37       3.05       2.45
O       1.86       4.39       4.21
O       2.58       3.23      16.36
O       2.91       1.28      15.32
O       8.57       3.07      15.79
O      -2.18       5.14      14.93
O       7.32       5.22      11.40
O       8.82       3.91      12.43
