22

O      11.75      17.77      12.91
O      10.62      15.85      12.91
O      10.36      16.88       5.74
O       8.26      16.63       6.43
C      10.64      17.06      10.85
C       9.85      16.03      10.33
C       9.45      16.02       8.99
C       9.89      17.00       8.11
C      10.69      18.09       8.59
C      11.10      19.14       7.73
C      11.80      20.22       8.22
C      12.14      20.28       9.59
C      11.78      19.27      10.45
C      11.04      18.14       9.99
C      11.02      16.91      12.29
C       9.48      16.84       6.69
H       9.57      15.23      11.00
H       8.81      15.23       8.62
H      10.84      19.09       6.68
H      12.10      21.03       7.55
H      12.71      21.13       9.96
H      12.05      19.30      11.50
