22

La       2.15       0.17      12.19
La       6.38      -0.21      13.34
O       5.77       1.87      14.72
O       3.99       1.00      13.70
O       0.77       0.25      10.13
O       2.82       1.13      10.06
O       7.14      -2.51      12.69
O       0.53      -1.45      12.96
O       2.76      -1.91      10.80
O       4.54      -1.04      11.82
O       7.76      -0.29      15.39
O       5.71      -1.17      15.46
O       1.39       2.47      12.83
O       8.00       1.41      12.56
C       4.54       1.90      14.47
C       1.68       0.90       9.52
C       1.34       1.42       8.14
C      -0.14      -2.51      12.67
C       3.99      -1.94      11.05
C       6.85      -0.94      16.01
C       7.19      -1.46      17.38
C       0.12       2.47      12.85
