16

Co       4.20       6.79      22.82
Co       5.33       8.93      23.48
C       6.37       9.39      21.77
C       5.01       6.64      20.93
C       5.36       6.85      25.28
C       2.67       8.68      24.07
C       7.13       9.75      20.58
O       5.71       8.04      25.01
O       4.67       6.17      24.45
O       3.90       7.28      21.14
O       5.58       6.11      21.96
O       2.70       7.52      23.52
O       3.71       9.40      24.14
C       5.65       6.51      19.57
O       6.87       8.62      22.69
O       5.16       9.81      21.96
