16

Co       3.99       5.32       5.38
Co       2.67       7.43       5.07
C       2.77       7.60       3.02
C       4.67       4.95       3.47
C       1.60       5.52       6.69
C       4.40       7.34       7.17
C       2.80       7.79       1.57
O       1.48       6.71       6.25
O       2.56       4.77       6.34
O       5.35       5.67       4.32
O       3.51       4.54       3.87
O       4.65       6.13       6.86
O       3.65       8.07       6.45
C       5.19       4.59       2.10
O       1.82       6.94       3.61
O       3.68       8.12       3.79
