30

Lu       4.97       0.46       9.33
Lu       9.67      -0.28       9.91
H       6.39       1.12      11.93
H       6.94      -0.23      11.33
H       8.26      -0.95       7.32
H       7.71       0.40       7.91
C       2.80       3.97       9.67
C       4.28      -0.86       7.11
C       7.61       2.35       9.31
C       4.04      -1.67       5.91
C       3.50       2.67       9.63
C      11.85      -3.80       9.58
C      10.36       1.03      12.13
C       7.04      -2.18       9.94
C      10.60       1.84      13.33
C      11.14      -2.50       9.62
O       3.29       1.85       8.66
O       3.61      -1.03       8.20
O       6.71       1.66       8.66
O       4.36       2.34      10.54
O       8.67       1.80       9.75
O       5.23       0.04       7.12
O       6.13       0.34      11.41
O      11.36      -1.68      10.58
O      11.03       1.20      11.04
O       7.93      -1.49      10.59
O      10.29      -2.17       8.70
O       5.98      -1.63       9.49
O       9.42       0.13      12.12
O       8.51      -0.17       7.84
