16

C       5.99       6.88      10.75
C       5.03       7.56      10.01
C       4.68       7.09       8.73
C       5.28       5.94       8.22
C       6.27       5.28       8.95
C       3.65       7.83       7.93
O       3.46       9.06       8.11
O       2.98       7.10       7.10
O       8.21       5.69      12.00
O       8.20       3.97      10.55
H       6.26       7.22      11.75
H       4.53       8.43      10.42
H       4.99       5.58       7.24
H       6.78       4.42       8.52
C       7.74       5.12      11.00
C       6.64       5.75      10.22
