872

H       0.38       2.66       6.01
H       0.04       3.64       3.85
H      30.19       5.10       1.81
H      29.96       6.87       0.19
H      30.06       9.75       3.29
H      30.37       6.39       7.85
H      27.37       7.54       5.04
H      26.43      11.13       7.08
H      28.75      11.47       7.56
H       2.33       7.65       5.30
H       0.56      11.53       7.66
H       2.94      11.27       7.41
H      28.84       9.51       0.21
H      30.02      10.54       1.00
H       0.21       4.55       9.26
H       1.24       3.37       8.48
H      24.87       8.15       5.98
H      25.26       8.99       4.50
H       4.63       9.92       5.39
H       4.61       8.24       5.93
H       0.38      40.78      31.55
H       0.03      39.79      33.71
H      30.19      38.33      35.75
H      29.96      36.57      37.38
H      30.06      33.69      34.28
H      30.37      37.05      29.71
H      27.37      35.90      32.52
H      26.43      32.31      30.48
H      28.75      31.97      29.99
H       2.33      35.79      32.27
H       0.57      31.90      29.90
H       2.94      32.17      30.16
H      28.84      33.93      37.35
H      30.02      32.89      36.56
H       0.21      38.89      28.30
H       1.23      40.06      29.08
H      24.87      35.29      31.58
H      25.26      34.45      33.06
H       4.63      33.52      32.18
H       4.61      35.20      31.64
H       0.37      34.49      43.10
H       0.03      36.65       0.70
H      30.19      38.69       2.16
H      29.96      40.32       3.93
H      30.07      37.22       6.81
H      30.38      32.65       3.45
H      27.38      35.46       4.60
H      26.44      33.42       8.19
H      28.76      32.93       8.53
H       2.33      35.21       4.71
H       0.57      32.84       8.60
H       2.95      33.10       8.33
H      28.84      40.29       6.57
H      30.03      39.50       7.60
H       0.20      31.24       1.61
H       1.23      32.02       0.44
H      24.88      34.52       5.21
H      25.27      36.00       6.05
H       4.64      35.12       6.98
H       4.62      34.58       5.31
H       0.38       8.95      37.85
H       0.04       6.79      36.86
H      30.19       4.75      35.40
H      29.96       3.12      33.63
H      30.06       6.22      30.76
H      30.38      10.79      34.11
H      27.38       7.98      32.96
H      26.43      10.01      29.37
H      28.75      10.50      29.03
H       2.33       8.23      32.85
H       0.57      10.59      28.96
H       2.94      10.33      29.23
H      28.84       3.15      31.00
H      30.02       3.94      29.96
H       0.21      12.20      35.95
H       1.23      11.42      37.13
H      24.88       8.91      32.35
H      25.27       7.43      31.51
H       4.63       8.31      30.58
H       4.62       8.85      32.25
H      15.97      24.39      27.57
H      15.45      25.45      25.48
H      14.78      26.95      23.55
H      14.48      28.73      21.95
H      15.10      31.59      25.02
H      15.86      28.15      29.51
H      12.60      29.35      27.51
H      12.20      33.05      29.52
H      14.57      33.38      29.41
H      18.20      29.43      26.39
H      17.05      33.35      29.04
H      19.30      33.05      28.29
H      13.65      31.40      21.93
H      14.87      32.39      22.74
H      16.28      26.20      30.85
H      17.15      24.97      29.97
H      10.40      29.98      28.32
H      10.29      31.69      27.93
H      20.27      30.83      25.67
H      20.78      30.09      27.18
H      15.97      19.04      10.00
H      15.45      17.99      12.09
H      14.79      16.48      14.02
H      14.48      14.70      15.61
H      15.10      11.85      12.54
H      15.86      15.29       8.05
H      12.60      14.09      10.05
H      12.19      10.39       8.04
H      14.57      10.06       8.14
H      18.20      14.01      11.17
H      17.05      10.09       8.52
H      19.30      10.38       9.27
H      13.65      12.03      15.63
H      14.87      11.04      14.83
H      16.28      17.23       6.71
H      17.15      18.46       7.60
H      10.40      13.46       9.24
H      10.29      11.75       9.63
H      20.27      12.61      11.89
H      20.78      13.35      10.38
H      15.97      12.93      21.45
H      15.45      15.03      22.51
H      14.79      16.96      24.01
H      14.49      18.55      25.79
H      15.10      15.48      28.65
H      15.86      10.99      25.21
H      12.60      12.99      26.41
H      12.19      10.97      30.10
H      14.57      11.08      30.44
H      18.20      14.10      26.49
H      17.05      11.45      30.41
H      19.30      12.20      30.11
H      13.65      18.57      28.46
H      14.87      17.77      29.45
H      16.28       9.65      23.27
H      17.15      10.53      22.04
H      10.40      12.18      27.03
H      10.28      12.56      28.73
H      20.28      14.82      27.89
H      20.79      13.31      27.15
H      15.97      30.50      16.11
H      15.45      28.41      15.05
H      14.79      26.48      13.55
H      14.48      24.89      11.77
H      15.10      27.95       8.92
H      15.86      32.44      12.35
H      12.60      30.44      11.16
H      12.19      32.46       7.46
H      14.56      32.36       7.13
H      18.20      29.33      11.07
H      17.04      31.99       7.16
H      19.30      31.24       7.45
H      13.65      24.87       9.10
H      14.87      25.67       8.11
H      16.28      33.78      14.30
H      17.15      32.90      15.53
H      10.40      31.26      10.53
H      10.28      30.87       8.83
H      20.28      28.62       9.67
H      20.79      30.12      10.41
H       1.39      42.14       8.54
H       1.01       0.89       9.56
H      26.19       3.06       6.21
H      25.43       1.84       5.21
H      27.64       3.80       4.34
H      25.93       3.88       3.89
H      26.94       2.56       3.28
H      27.59      42.72       3.20
H      26.16       0.26       3.62
H      25.47      41.84       5.24
H      26.87      40.87       4.72
H      25.59      41.27       3.56
H      29.01       3.09       8.92
H       1.07      40.74       6.61
H       1.38       1.30      29.02
H       1.01      42.54      28.00
H      26.19      40.37      31.36
H      25.43      41.60      32.36
H      27.64      39.64      33.22
H      25.93      39.56      33.68
H      26.94      40.88      34.29
H      27.59       0.72      34.37
H      26.16      43.18      33.94
H      25.46       1.59      32.33
H      26.86       2.56      32.84
H      25.58       2.16      34.00
H      29.00      40.34      28.65
H       1.06       2.70      30.95
H       1.38      31.96      39.20
H       1.00      30.94      41.34
H      26.19      34.30       0.12
H      25.43      35.30      42.28
H      27.64      36.16       0.86
H      25.93      36.62       0.94
H      26.94      37.23      43.00
H      27.59      37.30      39.78
H      26.16      36.88      40.70
H      25.47      35.26      38.90
H      26.86      35.78      37.93
H      25.59      36.94      38.33
H      29.00      31.59       0.16
H       1.06      33.89      37.80
H       1.38      11.48      41.75
H       1.00      12.50      39.61
H      26.19       9.14      37.44
H      25.43       8.14      38.66
H      27.64       7.27      36.70
H      25.93       6.82      36.62
H      26.95       6.21      37.94
H      27.59       6.13      41.17
H      26.16       6.56      40.24
H      25.47       8.17      42.04
H      26.86       7.66      43.01
H      25.59       6.50      42.61
H      29.00      11.85      37.41
H       1.06       9.55      43.14
H      17.06      20.39      30.23
H      16.84      22.59      31.16
H      11.24      24.87      27.97
H      10.38      23.63      27.08
H      12.60      25.45      25.99
H      10.87      25.57      25.63
H      11.81      24.19      25.03
H      12.33      20.96      25.07
H      10.96      21.96      25.52
H      10.27      20.26      27.24
H      11.60      19.21      26.70
H      10.29      19.62      25.59
H      14.21      24.91      30.52
H      16.60      18.96      28.35
H      17.05      23.05       7.34
H      16.83      20.85       6.41
H      11.24      18.57       9.60
H      10.38      19.80      10.48
H      12.60      17.98      11.58
H      10.87      17.86      11.94
H      11.81      19.24      12.53
H      12.33      22.48      12.49
H      10.96      21.48      12.04
H      10.27      23.18      10.32
H      11.60      24.23      10.86
H      10.29      23.82      11.98
H      14.21      18.53       7.04
H      16.60      24.48       9.21
H      17.06      10.27      17.45
H      16.84       9.34      19.65
H      11.25      12.54      21.93
H      10.38      13.42      20.69
H      12.61      14.52      22.51
H      10.88      14.88      22.63
H      11.81      15.47      21.25
H      12.34      15.43      18.01
H      10.97      14.98      19.02
H      10.27      13.26      17.32
H      11.60      13.79      16.27
H      10.29      14.91      16.68
H      14.21       9.98      21.97
H      16.60      12.15      16.02
H      17.06      33.16      20.11
H      16.84      34.09      17.91
H      11.25      30.90      15.63
H      10.38      30.01      16.87
H      12.61      28.92      15.05
H      10.88      28.56      14.93
H      11.81      27.96      16.31
H      12.34      28.01      19.55
H      10.97      28.46      18.54
H      10.27      30.18      20.24
H      11.60      29.64      21.29
H      10.29      28.53      20.89
H      14.21      33.46      15.59
H      16.60      31.29      21.55
H      22.29      11.80       6.20
H      21.04      12.34       8.14
H      24.39       8.60      12.91
H      25.58       7.49      12.27
H      23.74       5.93      11.52
H      22.54       7.05      12.20
H      23.70       6.24      13.27
H      26.37       6.83       8.54
H      26.04       6.33      10.18
H      27.92       8.62       9.33
H      28.41       7.02       9.91
H      27.61       8.14      11.02
H      20.95      10.46      11.05
H      24.61      11.06       5.48
H      22.29      31.64      31.36
H      21.05      31.09      29.41
H      24.36      34.85      24.65
H      25.58      35.94      25.28
H      23.78      37.53      26.05
H      22.55      36.43      25.38
H      23.71      37.23      24.30
H      26.36      36.61      29.02
H      26.04      37.11      27.37
H      27.91      34.82      28.23
H      28.41      36.42      27.66
H      27.61      35.29      26.55
H      20.95      32.97      26.50
H      24.61      32.38      32.07
H      22.30      34.31       8.86
H      21.05      32.36       9.41
H      24.37      27.59       5.66
H      25.58      28.23       4.56
H      23.76      28.98       2.98
H      22.55      28.31       4.09
H      23.71      27.24       3.29
H      26.37      31.96       3.89
H      26.04      30.31       3.40
H      27.92      31.17       5.68
H      28.41      30.59       4.08
H      27.61      29.48       5.21
H      20.95      29.45       7.53
H      24.62      35.02       8.12
H      22.30       9.13      28.70
H      21.05      11.07      28.15
H      24.36      15.84      31.91
H      25.58      15.21      32.99
H      23.78      14.44      34.59
H      22.55      15.11      33.49
H      23.71      16.19      34.29
H      26.37      11.47      33.67
H      26.05      13.12      34.16
H      27.91      12.26      31.88
H      28.41      12.84      33.47
H      27.61      13.95      32.35
H      20.95      13.98      30.03
H      24.62       8.42      29.44
H       7.42      32.25       5.71
H       9.54      32.20       6.83
H       7.53      34.50      13.14
H       6.09      35.49      13.07
H       7.36      37.28      11.85
H       8.84      36.30      11.99
H       8.04      36.92      13.44
H       3.58      35.59      10.20
H       4.47      36.27      11.54
H       3.13      33.50      11.46
H       2.53      34.93      12.33
H       4.03      34.14      12.86
H      10.71      33.63       8.92
H       5.02      32.38       5.90
H       7.42      11.19      31.86
H       9.54      11.23      30.73
H       7.55       8.92      24.43
H       6.09       7.95      24.49
H       7.33       6.14      25.72
H       8.82       7.10      25.59
H       8.03       6.49      24.13
H       3.58       7.83      27.37
H       4.47       7.16      26.01
H       3.13       9.93      26.11
H       2.53       8.51      25.24
H       4.03       9.30      24.71
H      10.71       9.80      28.65
H       5.02      11.06      31.66
H       7.41       8.64       8.26
H       9.53       9.76       8.30
H       7.54      16.07       6.00
H       6.10      16.01       5.02
H       7.35      14.78       3.22
H       8.83      14.91       4.19
H       8.05      16.37       3.58
H       3.58      13.14       4.91
H       4.47      14.48       4.23
H       3.13      14.40       7.01
H       2.54      15.27       5.58
H       4.03      15.79       6.37
H      10.71      11.84       6.87
H       5.02       8.83       8.13
H       7.41      34.80      29.30
H       9.53      33.68      29.26
H       7.55      27.37      31.57
H       6.10      27.43      32.54
H       7.34      28.66      34.35
H       8.83      28.54      33.39
H       8.04      27.07      33.99
H       3.58      30.30      32.66
H       4.47      28.96      33.33
H       3.13      29.05      30.56
H       2.54      28.18      31.99
H       4.03      27.65      31.19
H      10.71      31.60      30.69
H       5.02      34.60      29.44
C       0.58       8.64       5.94
C       0.07       9.74       6.64
C      29.40       9.69       6.61
C      29.01       8.55       5.90
C      27.64       8.34       5.62
C      26.67       9.29       6.02
C      27.09      10.42       6.77
C      28.45      10.62       7.07
C       0.93      10.71       7.18
C       2.32      10.55       7.02
C       2.86       9.40       6.38
C       1.97       8.45       5.82
C      30.27       6.38       5.75
C      30.35       5.58       4.60
C      30.26       6.40       3.48
C      30.20       7.73       3.91
C      30.18       6.08       2.12
C      30.04       7.11       1.18
C      30.04       8.48       1.58
C      30.11       8.78       2.96
C      30.40       5.79       7.03
C      30.67       4.40       7.15
C       0.09       3.64       5.96
C      30.62       4.21       4.69
C      30.19       7.82       5.39
C      29.87       9.55       0.56
C       0.22       3.78       8.48
C      25.25       9.09       5.58
C       4.34       9.26       6.21
C       0.58      34.80      31.62
C       0.07      33.70      30.92
C      29.40      33.75      30.95
C      29.01      34.88      31.66
C      27.64      35.10      31.94
C      26.67      34.15      31.53
C      27.10      33.02      30.79
C      28.45      32.81      30.49
C       0.94      32.73      30.38
C       2.32      32.89      30.54
C       2.86      34.03      31.19
C       1.97      34.98      31.75
C      30.27      37.06      31.81
C      30.35      37.85      32.96
C      30.26      37.03      34.08
C      30.20      35.70      33.66
C      30.18      37.36      35.45
C      30.04      36.32      36.39
C      30.04      34.96      35.98
C      30.11      34.66      34.60
C      30.40      37.65      30.54
C      30.67      39.03      30.42
C       0.09      39.80      31.60
C      30.62      39.23      32.87
C      30.19      35.62      32.17
C      29.87      33.88      37.00
C       0.22      39.66      29.08
C      25.25      34.34      31.97
C       4.34      34.18      31.35
C       0.58      34.56       5.70
C       0.08      33.86       6.80
C      29.41      33.89       6.75
C      29.01      34.60       5.61
C      27.65      34.88       5.40
C      26.67      34.47       6.35
C      27.10      33.73       7.48
C      28.46      33.43       7.68
C       0.94      33.32       7.77
C       2.33      33.48       7.61
C       2.87      34.13       6.47
C       1.98      34.69       5.52
C      30.28      34.75       3.44
C      30.36      35.90       2.65
C      30.26      37.02       3.46
C      30.21      36.59       4.79
C      30.18      38.38       3.14
C      30.05      39.33       4.17
C      30.04      38.92       5.54
C      30.12      37.54       5.84
C      30.40      33.47       2.85
C      30.67      33.35       1.46
C       0.09      34.54       0.70
C      30.62      35.81       1.27
C      30.19      35.11       4.88
C      29.88      39.94       6.61
C       0.22      32.02       0.84
C      25.26      34.91       6.16
C       4.34      34.30       6.33
C       0.58       8.88      31.86
C       0.08       9.58      30.76
C      29.41       9.55      30.81
C      29.01       8.84      31.95
C      27.64       8.55      32.16
C      26.67       8.96      31.21
C      27.10       9.70      30.08
C      28.46      10.00      29.88
C       0.94      10.11      29.79
C       2.33       9.95      29.95
C       2.87       9.31      31.09
C       1.98       8.75      32.04
C      30.28       8.69      34.12
C      30.36       7.54      34.92
C      30.26       6.42      34.10
C      30.20       6.84      32.77
C      30.18       5.05      34.43
C      30.04       4.11      33.39
C      30.03       4.52      32.03
C      30.11       5.90      31.72
C      30.41       9.96      34.71
C      30.67      10.09      36.10
C       0.10       8.90      36.87
C      30.63       7.63      36.29
C      30.19       8.33      32.68
C      29.87       3.50      30.95
C       0.22      11.42      36.72
C      25.26       8.52      31.40
C       4.34       9.14      31.23
C      16.65      30.43      27.41
C      16.32      31.56      28.17
C      14.96      31.55      28.42
C      14.40      30.40      27.84
C      13.01      30.18      27.95
C      12.18      31.13      28.60
C      12.77      32.32      29.10
C      14.16      32.52      29.04
C      17.30      32.52      28.50
C      18.62      32.33      28.05
C      18.98      31.20      27.28
C      17.98      30.24      26.98
C      15.51      28.19      27.43
C      15.35      27.41      26.28
C      15.11      28.24      25.20
C      15.16      29.57      25.63
C      14.84      27.92      23.86
C      14.66      28.97      22.93
C      14.79      30.33      23.33
C      15.02      30.62      24.70
C      15.76      27.57      28.68
C      15.88      26.15      28.76
C      15.80      25.40      27.56
C      15.51      26.01      26.33
C      15.43      29.64      27.10
C      14.68      31.40      22.31
C      16.18      25.47      30.05
C      10.70      30.98      28.66
C      20.36      31.00      26.75
C      16.65      13.01      10.15
C      16.32      11.88       9.39
C      14.96      11.89       9.15
C      14.40      13.03       9.72
C      13.01      13.26       9.61
C      12.18      12.31       8.96
C      12.77      11.12       8.46
C      14.16      10.92       8.52
C      17.30      10.92       9.06
C      18.62      11.10       9.50
C      18.98      12.24      10.28
C      17.98      13.20      10.58
C      15.51      15.25      10.13
C      15.35      16.03      11.28
C      15.11      15.20      12.36
C      15.17      13.87      11.93
C      14.84      15.51      13.71
C      14.66      14.46      14.63
C      14.79      13.11      14.23
C      15.02      12.82      12.86
C      15.75      15.87       8.89
C      15.88      17.28       8.81
C      15.80      18.04      10.00
C      15.51      17.42      11.24
C      15.43      13.80      10.47
C      14.68      12.03      15.26
C      16.18      17.97       7.51
C      10.69      12.46       8.90
C      20.36      12.43      10.81
C      16.65      13.09      27.49
C      16.32      12.33      28.62
C      14.96      12.08      28.61
C      14.40      12.66      27.46
C      13.01      12.55      27.24
C      12.18      11.89      28.18
C      12.77      11.39      29.37
C      14.16      11.45      29.58
C      17.29      11.99      29.57
C      18.61      12.44      29.39
C      18.98      13.21      28.26
C      17.98      13.52      27.30
C      15.51      13.07      25.25
C      15.35      14.22      24.47
C      15.11      15.30      25.30
C      15.17      14.87      26.63
C      14.85      16.65      24.98
C      14.67      17.57      26.03
C      14.79      17.17      27.39
C      15.02      15.80      27.68
C      15.76      11.82      24.63
C      15.88      11.74      23.21
C      15.80      12.94      22.46
C      15.51      14.17      23.07
C      15.43      13.40      26.70
C      14.68      18.20      28.46
C      16.18      10.45      22.53
C      10.69      11.83      28.03
C      20.37      13.74      28.06
C      16.65      30.35      10.07
C      16.32      31.10       8.94
C      14.96      31.35       8.95
C      14.40      30.77      10.10
C      13.01      30.88      10.33
C      12.18      31.54       9.38
C      12.77      32.04       8.19
C      14.16      31.98       7.99
C      17.29      31.45       7.99
C      18.61      31.00       8.17
C      18.98      30.23       9.30
C      17.98      29.92      10.26
C      15.51      30.37      12.31
C      15.35      29.22      13.10
C      15.11      28.13      12.26
C      15.17      28.57      10.94
C      14.84      26.79      12.58
C      14.67      25.87      11.53
C      14.79      26.27      10.18
C      15.02      27.63       9.88
C      15.76      31.61      12.94
C      15.88      31.69      14.35
C      15.81      30.49      15.10
C      15.51      29.26      14.49
C      15.43      30.03      10.87
C      14.68      25.24       9.10
C      16.18      32.98      15.04
C      10.69      31.60       9.54
C      20.36      29.69       9.50
C      30.53      42.27       7.12
C      29.49      43.12       6.67
C      29.25       0.99       7.29
C      30.09       1.44       8.34
C       0.39       0.59       8.80
C       0.62      42.72       8.20
C      27.43       1.40       5.77
C      27.67       0.15       5.14
C      26.37       2.36       5.38
C      26.75       3.20       4.14
C      26.90      42.94       4.01
C      26.16      41.65       4.42
C      30.52       1.16      30.44
C      29.49       0.32      30.89
C      29.25      42.45      30.27
C      30.08      41.99      29.22
C       0.39      42.85      28.76
C       0.61       0.72      29.36
C      27.43      42.04      31.80
C      27.67      43.29      32.42
C      26.37      41.07      32.18
C      26.75      40.24      33.43
C      26.90       0.49      33.55
C      26.15       1.79      33.15
C      30.52      33.37      39.33
C      29.49      33.83      40.18
C      29.24      33.21      41.43
C      30.08      32.16      41.89
C       0.39      31.70      41.03
C       0.61      32.29      39.78
C      27.43      34.73      41.84
C      27.67      35.36      40.59
C      26.37      35.12      42.81
C      26.75      36.37       0.26
C      26.90      36.49      40.00
C      26.16      36.09      38.71
C      30.52      10.07      41.61
C      29.49       9.61      40.76
C      29.25      10.23      39.51
C      30.08      11.28      39.06
C       0.39      11.74      39.91
C       0.61      11.14      41.17
C      27.43       8.70      39.10
C      27.67       8.08      40.36
C      26.37       8.31      38.14
C      26.75       7.07      37.30
C      26.90       6.95      40.94
C      26.16       7.35      42.24
C      15.42      20.54      28.88
C      14.41      21.42      28.44
C      14.26      22.71      29.00
C      15.17      23.17      29.98
C      16.17      22.28      30.44
C      16.30      20.99      29.90
C      12.39      23.13      27.55
C      12.54      21.84      26.97
C      11.35      24.12      27.17
C      11.68      24.88      25.87
C      11.69      21.24      25.91
C      10.92      20.00      26.40
C      15.42      22.90       8.68
C      14.41      22.02       9.13
C      14.26      20.73       8.56
C      15.17      20.26       7.58
C      16.17      21.15       7.12
C      16.29      22.45       7.66
C      12.39      20.30      10.01
C      12.54      21.59      10.59
C      11.35      19.31      10.39
C      11.68      18.55      11.70
C      11.69      22.19      11.65
C      10.91      23.44      11.17
C      15.42      11.61      17.60
C      14.41      12.06      18.48
C      14.26      11.50      19.77
C      15.17      10.52      20.23
C      16.17      10.06      19.34
C      16.30      10.60      18.05
C      12.39      12.95      20.19
C      12.54      13.53      18.90
C      11.35      13.33      21.19
C      11.69      14.64      21.94
C      11.69      14.59      18.30
C      10.92      14.10      17.06
C      15.42      31.82      19.96
C      14.41      31.37      19.09
C      14.27      31.93      17.79
C      15.18      32.92      17.33
C      16.17      33.38      18.22
C      16.30      32.84      19.51
C      12.39      30.48      17.37
C      12.54      29.91      18.66
C      11.35      30.11      16.38
C      11.69      28.80      15.62
C      11.69      28.84      19.26
C      10.92      29.33      20.50
C      23.60      10.41       7.11
C      23.88       9.78       8.35
C      23.13      10.10       9.51
C      22.07      11.04       9.47
C      21.80      11.66       8.23
C      22.53      11.34       7.08
C      24.43       8.52      10.80
C      25.18       8.20       9.64
C      24.57       7.86      12.12
C      23.57       6.69      12.29
C      26.28       7.20       9.56
C      27.64       7.79       9.98
C      23.60      33.03      30.45
C      23.88      33.66      29.20
C      23.13      33.34      28.04
C      22.07      32.39      28.09
C      21.80      31.78      29.33
C      22.54      32.10      30.48
C      24.42      34.92      26.76
C      25.18      35.24      27.92
C      24.56      35.58      25.44
C      23.59      36.77      25.29
C      26.27      36.24      27.99
C      27.64      35.65      27.58
C      23.60      33.39       7.47
C      23.89      32.15       6.84
C      23.13      30.99       7.16
C      22.08      31.03       8.11
C      21.80      32.28       8.72
C      22.54      33.43       8.40
C      24.43      29.70       5.58
C      25.18      30.86       5.26
C      24.56      28.38       4.92
C      23.58      28.22       3.74
C      26.28      30.93       4.26
C      27.64      30.51       4.85
C      23.60      10.04      30.09
C      23.88      11.29      30.72
C      23.13      12.45      30.40
C      22.08      12.40      29.46
C      21.80      11.16      28.84
C      22.54      10.01      29.16
C      24.42      13.73      31.98
C      25.18      12.57      32.30
C      24.56      15.05      32.64
C      23.59      15.20      33.83
C      26.28      12.50      33.30
C      27.64      12.92      32.71
C       6.33      33.12       7.30
C       6.46      33.60       8.63
C       7.71      33.56       9.30
C       8.84      33.01       8.67
C       8.72      32.58       7.32
C       7.48      32.61       6.66
C       6.72      34.66      11.20
C       5.47      34.70      10.53
C       7.01      35.24      12.54
C       7.87      36.52      12.44
C       4.23      35.34      11.04
C       3.43      34.41      11.98
C       6.33      10.32      30.26
C       6.46       9.83      28.94
C       7.71       9.87      28.26
C       8.84      10.43      28.90
C       8.72      10.86      30.24
C       7.48      10.83      30.90
C       6.73       8.77      26.36
C       5.47       8.73      27.03
C       7.01       8.18      25.03
C       7.86       6.90      25.13
C       4.23       8.09      26.53
C       3.43       9.02      25.58
C       6.32      10.23       7.39
C       6.46      11.56       6.90
C       7.71      12.23       6.95
C       8.84      11.59       7.50
C       8.72      10.25       7.93
C       7.48       9.59       7.90
C       6.73      14.13       5.84
C       5.47      13.46       5.81
C       7.01      15.47       5.26
C       7.87      15.37       3.98
C       4.23      13.97       5.17
C       3.44      14.92       6.10
C       6.33      33.20      30.17
C       6.46      31.88      30.66
C       7.71      31.21      30.62
C       8.84      31.85      30.07
C       8.72      33.19      29.63
C       7.48      33.85      29.67
C       6.73      29.31      31.72
C       5.47      29.98      31.75
C       7.01      27.97      32.31
C       7.86      28.07      33.59
C       4.23      29.47      32.40
C       3.44      28.52      31.47
N      28.24       1.75       6.81
N      28.70      42.77       5.63
N      29.97       2.74       8.92
N       0.11      41.07       6.42
N      28.24      41.68      30.76
N      28.69       0.66      31.94
N      29.97      40.70      28.65
N       0.10       2.37      31.14
N      28.23      33.70      42.20
N      28.69      34.87      39.83
N      29.96      31.58      43.18
N       0.11      34.07      38.13
N      28.24       9.74      38.75
N      28.69       8.56      41.11
N      29.97      11.85      37.76
N       0.10       9.37      42.81
N      13.26      23.50      28.52
N      13.55      21.06      27.45
N      15.15      24.49      30.51
N      15.65      19.30      28.21
N      13.26      19.94       9.04
N      13.55      22.37      10.11
N      15.15      18.95       7.05
N      15.64      24.13       9.35
N      13.27      11.98      20.56
N      13.55      13.05      18.12
N      15.15       9.99      21.55
N      15.65      12.28      16.36
N      13.27      31.46      17.00
N      13.55      30.38      19.44
N      15.15      33.45      16.01
N      15.65      31.15      21.20
N      23.44       9.45      10.67
N      24.86       8.85       8.49
N      21.36      11.33      10.67
N      24.26      10.17       5.87
N      23.44      33.99      26.89
N      24.86      34.59      29.07
N      21.36      32.11      26.89
N      24.26      33.27      31.69
N      23.44      29.83       6.51
N      24.86      32.01       5.91
N      21.35      29.83       8.39
N      24.27      34.63       7.24
N      23.44      13.60      31.05
N      24.86      11.42      31.65
N      21.36      13.60      29.17
N      24.27       8.80      30.33
N       7.77      34.09      10.55
N       5.41      34.16       9.28
N      10.08      32.96       9.36
N       5.05      33.04       6.69
N       7.78       9.34      27.02
N       5.41       9.27      28.28
N      10.08      10.48      28.21
N       5.05      10.40      30.87
N       7.78      13.48       6.41
N       5.41      12.22       6.35
N      10.08      12.28       7.55
N       5.04       9.63       7.47
N       7.78      29.96      31.15
N       5.41      31.22      31.22
N      10.08      31.16      30.02
N       5.04      33.81      30.09
