105

C       7.34      15.84      18.77
C       7.08      16.72      17.69
C       6.07      17.69      17.77
C       5.24      17.79      18.91
C       5.54      16.89       1.09
C       6.55      15.92       1.01
C       5.10       1.33       0.46
C       5.59       1.53       1.78
C       6.56       2.52       2.04
C       7.14       3.27       0.99
C       6.67       3.11      18.60
C       5.67       2.15      18.34
C       3.21       0.33      17.67
C       2.92      18.63       1.21
C       2.34       0.72       2.00
C       1.16       0.48       2.74
C       0.49      18.16       2.69
C       1.08      17.15       1.90
C       2.25      17.38       1.16
C       2.95      18.20      16.77
C       2.04      18.37      15.71
C       1.35       0.66      15.52
C       1.57       1.70      16.46
C       2.48       1.53      17.52
C       9.35      17.90       3.49
C       0.49       0.84      14.41
C       8.09       4.29       1.27
C       8.30      14.79      18.63
C       0.17       0.62      12.01
C       8.80       0.34      11.88
C       8.17       0.36      10.62
C       8.90       0.69       9.46
C       0.28       1.00       9.57
C       0.89       0.96      10.84
C       8.34       0.49       8.18
C       8.11       1.58       7.30
C       8.04       1.33       5.91
C       8.25       0.04       5.35
C       8.34      17.89       6.27
C       8.40      18.11       7.66
C       9.39      12.87       0.74
C       8.74      11.94       1.57
C       9.04      10.57       1.47
C       0.00      10.11       0.56
C       0.71      11.10      18.69
C       0.40      12.48      18.79
C       0.09       8.70       0.37
C       9.51       8.16      18.15
C       9.29       6.76      18.15
C       9.59       5.90       0.35
C       0.24       6.50       1.44
C       0.49       7.89       1.45
H       0.81       1.25       3.33
H       2.74       1.66       2.03
H       0.65      16.23       1.82
H       2.59      16.63       0.56
H       3.38      17.28      16.89
H       1.87      17.58      15.08
H       1.08       2.59      16.36
H       2.59       2.31      18.18
H       5.40       2.01      17.37
H       7.02       3.66      17.82
H       6.87       2.65       3.00
H       5.26       0.96       2.56
H       5.01      16.96       1.96
H       5.94      18.31      16.97
H       7.64      16.66      16.83
H       6.67      15.29       1.80
H       1.90       1.14      10.91
H       7.97       2.14       5.28
H       8.50      16.94       5.95
H       8.26      18.94      12.69
H       8.62      17.32       8.27
H       7.19       0.07      10.55
H       8.57       0.79       3.52
H       1.75      18.97      13.07
H       0.88      13.16      18.20
H       8.78       6.34      17.36
H       0.45       5.95       2.28
H       7.99      12.24       2.19
H       0.87       8.31       2.31
H       8.48       9.92       2.03
H       9.20       4.15      18.53
H       8.81      14.55       1.64
N       1.04       1.27       8.41
N       8.03       2.89       7.83
N       8.53      18.86       4.00
N       0.86       0.42      13.17
N       1.72      10.64      17.80
N       9.04       8.96      17.08
N       9.09       4.63       0.40
N       8.96      14.17       0.76
O       9.41       1.64      14.56
O       8.94      16.61       3.62
O       7.85       5.05       2.36
O       8.40      14.22      17.41
O       6.92       3.41       7.57
O       1.94       0.40       8.23
O       1.59       2.40       8.46
O       8.93       3.63       7.36
O       7.79       8.90      16.96
O       2.84      11.11      18.12
O       1.47      10.97      16.61
O       9.57       8.63      15.99
Si       4.12       0.03       0.11
