16

O       0.22      12.97       4.44
O       0.46      14.17       2.55
O      -0.53      20.12       4.60
O      -0.54      19.10       2.61
C      -0.53      19.04       3.88
H       0.13      16.62       2.86
H      -1.16      18.57       6.47
H      -1.19      16.35       7.64
C       0.20      14.10       3.78
C      -0.17      15.33       4.55
C      -0.17      16.57       3.91
C      -0.53      17.74       4.59
H      -0.53      14.30       6.41
C      -0.89      17.65       5.95
C      -0.91      16.42       6.60
C      -0.54      15.26       5.91
