16

H      -0.15       6.43       2.86
H       1.13       8.40       6.47
H       1.19       6.18       7.64
H       0.55       4.12       6.41
O      -0.18       2.78       4.43
O      -0.48       3.99       2.55
O       0.47       9.94       4.57
O       0.53       8.88       2.59
C      -0.19       3.91       3.78
C       0.17       5.14       4.55
C       0.15       6.38       3.91
C       0.50       7.55       4.59
C       0.50       8.85       3.86
C       0.87       7.48       5.94
C       0.90       6.24       6.59
C       0.55       5.08       5.90
