16

C       7.29       9.69      15.26
C       6.93       8.46      14.48
C       6.95       7.22      15.13
C       6.60       6.05      14.45
C       6.60       4.75      15.18
C       6.23       6.12      13.09
C       6.20       7.36      12.44
C       6.56       8.52      13.13
H       7.25       7.17      16.17
H       5.97       5.21      12.57
H       5.91       7.42      11.40
H       6.55       9.48      12.63
O       7.28      10.82      14.61
O       7.58       9.61      16.48
O       6.63       3.66      14.46
O       6.57       4.72      16.44
