16

O      -1.51       7.99      10.58
O       0.71       8.48      10.57
O      -3.00       4.21       8.09
O      -2.04       2.18       8.46
C      -0.25       7.69      10.45
H      -2.02       5.99       9.37
C      -1.06       5.51       9.51
C      -0.01       6.25      10.09
C      -0.87       4.19       9.11
H       2.06       6.22      10.67
C       1.43       4.31       9.87
C       1.24       5.64      10.25
C      -2.03       3.43       8.50
C       0.37       3.58       9.31
H       0.49       2.53       9.02
H       2.39       3.83      10.01
