73

C      12.67      12.43       1.25
C      11.11      10.85       1.08
C      12.08      10.43       1.94
C      10.85      12.89      -0.36
C      11.61      13.61      -1.28
C      10.98      14.29      -2.32
C       9.59      14.26      -2.47
C       8.84      13.55      -1.51
C       9.45      12.88      -0.46
C       8.87      14.76      -3.73
C       3.09      17.95      -2.81
C       4.51      19.61      -2.33
C       3.22      20.09      -2.33
C       5.50      17.35      -2.88
C       5.58      16.70      -4.12
C       6.65      15.85      -4.38
C       7.63      15.60      -3.40
C       7.52      16.26      -2.17
C       6.46      17.14      -1.90
C      11.18      19.01      -8.28
C      13.07      20.04      -7.88
C      12.85      19.21      -6.81
C      11.00      17.60      -6.24
C      10.32      16.53      -6.82
C       9.67      15.60      -6.01
C       9.71      15.71      -4.61
C      10.39      16.80      -4.05
C      11.03      17.74      -4.85
C       8.96       8.80      -6.72
C       7.03       7.85      -7.16
C       6.76       9.02      -6.51
C       8.18      10.89      -5.62
C       9.46      11.45      -5.56
C       9.64      12.71      -4.99
C       8.56      13.44      -4.47
C       7.30      12.85      -4.51
C       7.10      11.59      -5.08
H      13.21      13.36       1.15
H      10.23      10.36       0.69
H      12.19       9.49       2.46
H      12.70      13.55      -1.25
H      11.60      14.79      -3.06
H       7.75      13.51      -1.61
H       8.86      12.34       0.27
H       2.71      16.96      -3.01
H       5.46      20.10      -2.21
H       2.85      21.09      -2.17
H       4.83      16.89      -4.88
H       6.74      15.40      -5.37
N      13.05      11.42       2.05
N      11.49      12.12       0.64
H      10.25      18.71      -8.74
H      13.92      20.68      -8.08
N      12.03      19.91      -8.78
N      11.64      18.57      -7.07
N       8.41       7.72      -7.29
N       7.98       9.62      -6.22
H       9.12      14.80      -6.49
H      10.03       8.99      -6.68
H       6.38       7.08      -7.57
H       5.81       9.47      -6.25
H      10.33      10.93      -5.96
H      10.65      13.12      -4.96
H       6.43      13.38      -4.11
H       6.10      11.18      -5.11
H      10.40      16.94      -2.97
H      11.55      18.58      -4.40
H       8.27      16.10      -1.40
H       6.38      17.63      -0.94
N       2.35      19.05      -2.62
H      13.45      18.97      -5.94
N       4.41      18.25      -2.64
H      10.28      16.41      -7.90
