22

O      11.30       7.76       1.26
O      12.22       5.71       1.44
O      10.05       3.19       2.04
O      11.89       1.98       2.40
H      10.29       8.28       5.98
H      10.50       8.56       3.55
H      12.70       4.28       3.27
H      10.99       2.90       5.35
H      12.48       3.99       5.63
C      10.41       5.90       7.36
C      10.79       6.45       3.14
C      10.76       5.19       3.72
C      10.64       5.03       5.08
C      10.44       7.41       5.36
C      10.52       7.56       3.96
C      11.68       4.02       3.58
C      11.53       3.82       5.07
C      10.61       6.14       5.93
C      11.41       6.62       1.84
N      11.12       2.96       2.74
O       9.54       6.62       7.97
O      10.83       4.78       7.80
