432

C       8.54       0.20       0.64
C       7.94       1.40       1.13
C       6.80       1.43       1.96
C       6.25       0.20       2.36
C       6.78      35.44       1.94
C       7.92      35.47       1.10
C       0.60       0.20      36.22
C       1.20       1.40      35.73
C       2.35       1.43      34.90
C       2.89       0.20      34.50
C       2.36      35.44      34.92
C       1.22      35.47      35.76
C       8.54      18.42      36.22
C       7.94      17.22      35.73
C       6.80      17.19      34.90
C       6.25      18.42      34.50
C       6.78      19.65      34.92
C       7.92      19.63      35.76
C       0.60      18.42       0.64
C       1.20      17.22       1.13
C       2.35      17.19       1.96
C       2.89      18.43       2.36
C       2.36      19.66       1.94
C       1.22      19.63       1.10
C       8.55       8.86      27.54
C       7.93       8.38      28.74
C       6.80       7.54      28.77
C       6.27       7.11      27.53
C       6.80       7.54      26.30
C       7.94       8.38      26.33
C       0.59       9.76      27.54
C       1.21      10.24      28.75
C       2.34      11.08      28.77
C       2.87      11.51      27.54
C       2.34      11.09      26.31
C       1.20      10.24      26.33
C       8.55       9.76       9.32
C       7.93      10.24       8.12
C       6.80      11.08       8.09
C       6.27      11.51       9.33
C       6.80      11.09      10.55
C       7.94      10.24      10.53
C       0.59       8.86       9.32
C       1.21       8.38       8.12
C       2.34       7.54       8.09
C       2.87       7.11       9.33
C       2.34       7.54      10.56
C       1.20       8.38      10.53
C       0.59      28.00       9.31
C       1.19      28.50       8.10
C       2.33      29.34       8.07
C       2.87      29.75       9.31
C       2.35      29.31      10.54
C       1.22      28.46      10.51
C       8.55      27.10       9.31
C       7.95      26.60       8.10
C       6.81      25.76       8.08
C       6.27      25.35       9.31
C       6.79      25.79      10.54
C       7.92      26.64      10.51
C       0.60      27.10      27.55
C       1.19      26.60      28.76
C       2.33      25.76      28.78
C       2.87      25.35      27.55
C       2.35      25.79      26.32
C       1.22      26.64      26.35
C       8.55      28.00      27.55
C       7.95      28.50      28.76
C       6.81      29.34      28.78
C       6.27      29.75      27.55
C       6.79      29.31      26.32
C       7.92      28.46      26.35
C       8.55      18.43      18.89
C       7.95      19.64      19.38
C       6.82      19.67      20.23
C       6.29      18.43      20.65
C       6.80      17.20      20.21
C       7.93      17.23      19.35
C       0.59      18.44      17.97
C       1.19      19.64      17.48
C       2.32      19.67      16.63
C       2.85      18.44      16.21
C       2.34      17.20      16.65
C       1.21      17.23      17.51
C       8.55       0.19      17.97
C       7.95      35.46      17.48
C       6.82      35.43      16.63
C       6.29       0.19      16.21
C       6.81       1.42      16.65
C       7.93       1.39      17.51
C       0.59       0.19      18.89
C       1.19      35.46      19.38
C       2.32      35.43      20.23
C       2.85       0.19      20.65
C       2.34       1.42      20.21
C       1.21       1.39      19.35
C       6.21      29.85      29.98
C       6.95      30.62      30.91
C       4.96      31.41      31.98
C       4.17      30.62      31.12
C       4.80      29.83      30.14
C       4.30      32.29      32.87
C       2.96      34.25      34.42
C       2.22      33.33      33.63
C       2.89      32.36      32.85
C       4.37      34.08      34.45
C       6.21      25.25       6.88
C       6.95      24.48       5.95
C       4.96      23.69       4.87
C       4.17      24.48       5.74
C       4.80      25.27       6.72
C       4.30      22.81       3.98
C       2.96      20.85       2.44
C       2.22      21.77       3.23
C       2.89      22.74       4.01
C       4.37      21.02       2.41
C       6.19      16.00      20.70
C       6.93      15.06      21.46
C       4.94      14.01      22.26
C       4.15      14.88      21.48
C       4.78      15.86      20.69
C       4.28      13.12      23.15
C       2.93      11.59      25.11
C       2.19      12.38      24.20
C       2.86      13.16      23.22
C       4.34      11.55      24.93
C       6.20       2.62      16.16
C       6.93       3.56      15.40
C       4.94       4.61      14.60
C       4.15       3.74      15.38
C       4.79       2.76      16.17
C       4.27       5.50      13.72
C       2.93       7.03      11.75
C       2.19       6.24      12.66
C       2.86       5.46      13.64
C       4.34       7.08      11.93
C       2.93      25.25      29.98
C       2.19      24.48      30.91
C       4.18      23.69      31.98
C       4.97      24.48      31.12
C       4.34      25.27      30.14
C       4.84      22.81      32.87
C       6.18      20.85      34.42
C       6.92      21.77      33.63
C       6.26      22.74      32.85
C       4.77      21.02      34.45
C       2.93      29.85       6.88
C       2.19      30.62       5.95
C       4.18      31.41       4.87
C       4.97      30.62       5.74
C       4.34      29.82       6.72
C       4.84      32.29       3.99
C       6.18      34.25       2.44
C       6.92      33.33       3.23
C       6.26      32.36       4.01
C       4.77      34.08       2.41
C       2.95       2.62      20.70
C       2.21       3.56      21.46
C       4.21       4.61      22.26
C       4.99       3.74      21.48
C       4.36       2.76      20.69
C       4.87       5.50      23.14
C       6.21       7.03      25.11
C       6.95       6.24      24.20
C       6.28       5.46      23.22
C       4.80       7.07      24.93
C       2.94      16.01      16.16
C       2.21      15.07      15.40
C       4.20      14.01      14.60
C       4.99      14.89      15.38
C       4.36      15.86      16.17
C       4.87      13.13      13.72
C       6.21      11.59      11.75
C       6.95      12.39      12.66
C       6.28      13.16      13.64
C       4.80      11.55      11.93
C       2.95       7.03       6.90
C       2.21       6.27       5.96
C       4.21       5.47       4.90
C       5.00       6.25       5.77
C       4.36       7.04       6.75
C       4.86       4.59       4.01
C       6.20       2.62       2.47
C       6.94       3.53       3.27
C       6.28       4.50       4.05
C       4.80       2.80       2.43
C       2.95      11.59      29.97
C       2.21      12.35      30.90
C       4.21      13.15      31.96
C       5.00      12.37      31.09
C       4.36      11.57      30.11
C       4.87      14.03      32.85
C       6.20      15.99      34.39
C       6.94      15.09      33.59
C       6.28      14.11      32.81
C       4.80      15.82      34.43
C       2.92      20.86      16.13
C       2.18      21.80      15.36
C       4.18      22.86      14.57
C       4.97      22.00      15.36
C       4.33      21.02      16.15
C       4.84      23.75      13.69
C       6.19      25.29      11.74
C       6.93      24.51      12.66
C       6.26      23.73      13.63
C       4.78      25.32      11.90
C       2.92      34.24      20.74
C       2.18      33.31      21.51
C       4.18      32.23      22.29
C       4.97      33.10      21.50
C       4.33      34.08      20.71
C       4.84      31.35      23.17
C       6.19      29.80      25.12
C       6.92      30.59      24.20
C       6.26      31.37      23.23
C       4.78      29.77      24.96
C       6.19      11.59       6.90
C       6.93      12.35       5.96
C       4.94      13.15       4.90
C       4.15      12.37       5.77
C       4.78      11.58       6.75
C       4.28      14.04       4.01
C       2.94      16.00       2.48
C       2.20      15.09       3.27
C       2.86      14.12       4.05
C       4.35      15.82       2.43
C       6.19       7.03      29.96
C       6.93       6.27      30.90
C       4.94       5.47      31.96
C       4.15       6.25      31.09
C       4.78       7.05      30.11
C       4.28       4.59      32.85
C       2.94       2.63      34.39
C       2.20       3.53      33.59
C       2.86       4.51      32.81
C       4.35       2.80      34.43
C       6.22      34.24      16.12
C       6.96      33.31      15.36
C       4.96      32.24      14.57
C       4.18      33.10      15.36
C       4.81      34.08      16.15
C       4.30      31.35      13.69
C       2.95      29.81      11.74
C       2.22      30.59      12.65
C       2.88      31.37      13.62
C       4.36      29.78      11.90
C       6.22      20.86      20.74
C       6.96      21.79      21.51
C       4.96      22.86      22.29
C       4.18      22.00      21.50
C       4.81      21.02      20.71
C       4.30      23.75      23.17
C       2.96      25.29      25.12
C       2.22      24.51      24.21
C       2.88      23.73      23.23
C       4.36      25.33      24.96
H       8.32       2.31       0.88
H       8.27      34.56       0.82
H       5.47       0.20       3.03
H       0.82       2.31      35.98
H       3.68       0.20      33.83
H       0.87      34.56      36.04
H       8.32      16.31      35.98
H       8.27      20.54      36.04
H       5.47      18.42      33.83
H       0.82      16.31       0.88
H       3.68      18.43       3.03
H       0.87      20.54       0.81
H       8.29       8.66      29.66
H       8.30       8.65      25.42
H       5.49       6.44      27.53
H       0.85       9.96      29.66
H       3.65      12.18      27.53
H       0.84       9.97      25.42
H       8.29       9.96       7.20
H       8.30       9.97      11.44
H       5.49      12.18       9.33
H       0.85       8.66       7.20
H       3.65       6.44       9.33
H       0.84       8.65      11.44
H       0.81      28.25       7.19
H       0.88      28.16      11.42
H       3.65      30.42       9.31
H       8.33      26.85       7.19
H       5.49      24.68       9.31
H       8.27      26.94      11.42
H       0.81      26.85      29.67
H       0.88      26.94      25.44
H       3.65      24.68      27.55
H       8.33      28.25      29.67
H       5.49      30.42      27.55
H       8.26      28.16      25.44
H       8.32      20.55      19.12
H       8.27      16.32      19.05
H       5.51      18.43      21.33
H       0.82      20.55      17.74
H       3.63      18.44      15.53
H       0.87      16.32      17.81
H       8.32      34.55      17.74
H       8.27       2.30      17.81
H       5.52       0.19      15.53
H       0.82      34.55      19.12
H       3.63       0.19      21.33
H       0.87       2.30      19.05
H       4.22      29.31      29.48
H       7.97      30.71      30.82
H       1.21      33.45      33.53
H       4.96      34.72      34.98
H       4.22      25.79       7.38
H       7.97      24.39       6.04
H       1.21      21.65       3.33
H       4.96      20.38       1.88
H       4.20      16.54      20.18
H       7.95      15.15      21.55
H       1.18      12.50      24.32
H       4.93      11.01      25.57
H       4.21       2.08      16.68
H       7.95       3.47      15.31
H       1.18       6.12      12.54
H       4.93       7.61      11.29
H       4.92      25.79      29.48
H       1.17      24.39      30.82
H       7.93      21.65      33.53
H       4.18      20.37      34.98
H       4.92      29.31       7.38
H       1.18      30.71       6.04
H       7.93      33.45       3.33
H       4.18      34.72       1.88
H       4.94       2.08      20.18
H       1.19       3.47      21.55
H       7.96       6.12      24.32
H       4.21       7.61      25.57
H       4.94      16.54      16.68
H       1.19      15.15      15.31
H       7.96      12.50      12.54
H       4.21      11.01      11.29
H       4.94       7.55       7.42
H       1.20       6.19       6.04
H       7.95       3.41       3.38
H       4.20       2.17       1.89
H       4.94      11.07      29.44
H       1.20      12.43      30.82
H       7.95      15.21      33.48
H       4.21      16.45      34.97
H       4.91      20.35      16.67
H       1.17      21.70      15.26
H       7.94      24.40      12.54
H       4.19      25.86      11.25
H       4.91      34.75      20.20
H       1.17      33.40      21.60
H       7.94      30.70      24.32
H       4.19      29.24      25.61
H       4.20      11.07       7.42
H       7.94      12.43       6.04
H       1.19      15.22       3.38
H       4.94      16.45       1.89
H       4.20       7.55      29.44
H       7.95       6.19      30.82
H       1.19       3.41      33.48
H       4.94       2.17      34.97
H       4.23      34.75      16.66
H       7.97      33.40      15.26
H       1.20      30.70      12.54
H       4.95      29.24      11.25
H       4.23      20.35      20.20
H       7.97      21.70      21.60
H       1.20      24.40      24.32
H       4.95      25.86      25.61
N       6.32      31.38      31.85
N       4.98      33.15      33.68
N       2.21      31.55      32.00
N       2.82      30.72      31.18
N       6.32      23.73       5.01
N       4.98      21.95       3.18
N       2.21      23.55       4.86
N       2.82      24.38       5.68
N       6.29      14.13      22.21
N       4.96      12.31      23.99
N       2.19      14.02      22.42
N       2.79      14.83      21.59
N       6.29       4.49      14.64
N       4.95       6.31      12.87
N       2.19       4.60      14.44
N       2.80       3.79      15.27
N       2.82      23.72      31.85
N       4.16      21.95      33.68
N       6.93      23.55      32.00
N       6.32      24.38      31.18
N       2.83      31.37       5.01
N       4.16      33.14       3.18
N       6.93      31.54       4.86
N       6.32      30.72       5.68
N       2.85       4.49      22.21
N       4.19       6.31      23.99
N       6.96       4.60      22.42
N       6.35       3.79      21.59
N       2.85      14.13      14.64
N       4.19      12.31      12.87
N       6.96      14.02      14.44
N       6.35      14.84      15.27
N       2.85       5.52       5.02
N       4.18       3.74       3.20
N       6.96       5.31       4.91
N       6.35       6.14       5.72
N       2.85      13.10      31.84
N       4.18      14.88      33.66
N       6.96      13.31      31.95
N       6.35      12.48      31.14
N       2.82      22.73      14.60
N       4.16      24.56      12.83
N       6.93      22.88      14.44
N       6.32      22.06      15.26
N       2.82      32.37      22.26
N       4.16      30.54      24.03
N       6.93      32.22      22.42
N       6.32      33.04      21.60
N       6.29      13.10       5.02
N       4.96      14.88       3.20
N       2.19      13.31       4.91
N       2.79      12.48       5.72
N       6.29       5.52      31.84
N       4.96       3.74      33.66
N       2.19       5.31      31.95
N       2.79       6.14      31.14
N       6.32      32.37      14.60
N       4.98      30.54      12.83
N       2.21      32.23      14.44
N       2.82      33.04      15.26
N       6.32      22.73      22.26
N       4.98      24.56      24.03
N       2.21      22.88      22.42
N       2.82      22.06      21.60
