432

H       2.27       0.74      26.21
H      25.01      26.52       1.05
H       0.97      22.80       3.47
H      26.31      22.80       3.47
H      26.31       4.46      23.79
H       0.97       4.46      23.79
H      25.01       0.73      26.20
H       2.27      26.51       1.05
H      11.51      26.51      12.74
H      15.72       0.73      14.53
H      12.81       4.45      16.95
H      14.42       4.45      16.96
H      14.42      22.81      10.29
H      12.81      22.80      10.30
H      15.72      26.52      12.73
H      11.51       0.75      14.52
H       6.39      22.45       5.94
H       7.58      18.25       7.72
H      11.18      21.25      10.26
H      11.28      19.63      10.15
H       2.50      19.63       3.63
H       2.60      21.25       3.51
H       6.20      18.25       6.06
H       7.39      22.45       7.84
H       7.39       4.81      19.42
H       6.20       9.00      21.20
H       2.59       6.01      23.73
H       2.50       7.63      23.61
H      11.29       7.62      17.12
H      11.19       6.01      17.00
H       7.58       9.00      19.54
H       6.39       4.81      21.31
H      20.90       4.78      21.29
H      19.71       8.98      19.50
H      16.04       6.00      17.05
H      15.96       7.62      17.16
H      24.78       7.62      23.57
H      24.70       6.00      23.67
H      21.02       8.98      21.23
H      19.84       4.78      19.44
H      19.84      22.48       7.82
H      21.02      18.28       6.03
H      24.69      21.26       3.57
H      24.77      19.64       3.67
H      15.96      19.64      10.11
H      16.04      21.26      10.21
H      19.71      18.28       7.75
H      20.89      22.48       5.96
H      15.74      14.24      12.76
H      11.54      13.03      14.52
H      14.45       9.44      17.21
H      12.82       9.43      17.20
H      12.82      17.83      10.06
H      14.45      17.82      10.05
H      11.54      14.22      12.74
H      15.74      13.01      14.50
H      24.99      13.01      26.23
H       2.24      14.22       1.04
H      26.28      17.82       3.73
H       0.96      17.83       3.71
H       0.96       9.43      23.54
H      26.28       9.44      23.52
H       2.24      13.03      26.22
H      24.99      14.24       1.02
H      23.71      24.01       1.19
H      25.31      25.13       4.88
H      21.73      22.75       1.00
H      20.78      22.46       2.45
H      22.05      21.32       1.97
H      23.34      22.85       6.97
H      23.84      24.53       6.98
H      25.03      23.25       6.66
H      17.01       3.25      14.66
H      15.42       2.12      18.36
H      19.00       4.51      14.47
H      19.95       4.80      15.93
H      18.67       5.94      15.44
H      17.39       4.40      20.45
H      16.90       2.72      20.45
H      15.71       3.99      20.14
H      10.01      16.93       7.90
H       8.99      18.64      11.57
H      10.82      14.41       8.15
H      12.15      14.25       9.29
H      12.23      15.48       8.01
H      11.26      16.68      13.67
H       9.59      17.22      13.69
H      10.89      18.36      13.31
H       3.77      10.33      21.37
H       4.79       8.61      25.05
H       2.96      12.85      21.62
H       1.63      13.01      22.76
H       1.55      11.78      21.49
H       2.52      10.57       0.20
H       4.18      10.03       0.22
H       2.88       8.89      26.79
H      17.02      24.01      12.59
H      15.42      25.13       8.89
H      19.00      22.75      12.79
H      19.95      22.46      11.33
H      18.68      21.32      11.81
H      17.39      22.85       6.81
H      16.90      24.54       6.80
H      15.71      23.26       7.12
H      23.71       3.25      26.07
H      25.31       2.13      22.37
H      21.73       4.51      26.26
H      20.78       4.80      24.80
H      22.05       5.94      25.29
H      23.34       4.41      20.28
H      23.84       2.72      20.28
H      25.03       4.00      20.59
H       3.77      16.93       5.88
H       4.79      18.64       2.21
H       2.96      14.41       5.63
H       1.63      14.25       4.49
H       1.55      15.48       5.77
H       2.52      16.68       0.11
H       4.19      17.22       0.09
H       2.89      18.36       0.47
H      10.01      10.33      19.36
H       8.99       8.61      15.69
H      10.82      12.85      19.11
H      12.15      13.01      17.97
H      12.23      11.78      19.24
H      11.26      10.57      13.59
H       9.59      10.03      13.57
H      10.90       8.89      13.94
H       3.57       3.25      26.08
H       1.98       2.13      22.38
H       5.55       4.52      26.27
H       6.49       4.82      24.82
H       5.22       5.96      25.30
H       3.94       4.42      20.29
H       3.45       2.74      20.29
H       2.26       4.01      20.61
H      10.21      24.00      12.60
H      11.80      25.13       8.90
H       8.23      22.73      12.80
H       7.28      22.44      11.35
H       8.56      21.30      11.83
H       9.84      22.83       6.82
H      10.33      24.52       6.81
H      11.52      23.25       7.13
H      17.33      10.36      19.33
H      18.23       8.55      15.67
H      16.19      12.42      19.47
H      15.92      13.32      17.98
H      14.71      12.16      18.56
H      15.93      10.50      13.59
H      17.59       9.94      13.53
H      16.28       8.82      13.97
H      23.40      16.90       5.86
H      22.50      18.71       2.20
H      24.55      14.84       6.00
H      24.82      13.94       4.51
H      26.03      15.10       5.08
H      24.79      16.75       0.11
H      23.13      17.32       0.06
H      24.45      18.43       0.49
H      10.22       3.26      14.65
H      11.80       2.13      18.35
H       8.24       4.53      14.46
H       7.29       4.82      15.91
H       8.57       5.96      15.43
H       9.84       4.42      20.44
H      10.33       2.73      20.45
H      11.52       4.01      20.13
H       3.57      24.00       1.18
H       1.98      25.12       4.88
H       5.55      22.74       0.98
H       6.50      22.44       2.44
H       5.22      21.30       1.95
H       3.94      22.83       6.96
H       3.45      24.52       6.97
H       2.26      23.24       6.65
H      23.40      10.36      21.40
H      22.50       8.55      25.06
H      24.54      12.42      21.26
H      24.82      13.32      22.75
H      26.02      12.16      22.17
H      24.80      10.50       0.19
H      23.14       9.94       0.24
H      24.45       8.82      26.76
H      17.33      16.90       7.93
H      18.23      18.71      11.59
H      16.19      14.84       7.78
H      15.91      13.94       9.28
H      14.71      15.10       8.70
H      15.94      16.75      13.67
H      17.60      17.32      13.72
H      16.29      18.43      13.29
C       0.17       0.65      26.55
C       1.37       1.13      25.95
C       1.40       2.14      24.95
C       0.17       2.76      24.58
C      25.89       2.14      24.95
C      25.92       1.13      25.94
C       0.17      26.61       0.70
C       1.37      26.12       1.31
C       1.40      25.11       2.30
C       0.17      24.50       2.68
C      25.89      25.12       2.31
C      25.92      26.13       1.31
C      13.61      26.61      13.08
C      12.41      26.12      12.47
C      12.38      25.11      11.48
C      13.61      24.50      11.10
C      14.84      25.12      11.47
C      14.81      26.13      12.47
C      13.61       0.64      14.18
C      12.41       1.13      14.78
C      12.38       2.14      15.78
C      13.61       2.75      16.15
C      14.84       2.14      15.78
C      14.81       1.13      14.79
C       6.39      20.36       6.35
C       5.95      21.56       5.72
C       4.87      21.62       4.79
C       4.22      20.40       4.43
C       4.82      19.16       4.80
C       5.84      19.16       5.78
C       7.39      20.36       7.43
C       7.83      21.56       8.06
C       8.91      21.62       8.99
C       9.56      20.40       9.35
C       8.96      19.16       8.98
C       7.94      19.16       8.00
C       7.39       6.90      19.82
C       7.83       5.70      19.19
C       8.91       5.64      18.27
C       9.56       6.85      17.91
C       8.97       8.10      18.28
C       7.94       8.09      19.26
C       6.39       6.90      20.91
C       5.95       5.70      21.54
C       4.87       5.64      22.46
C       4.22       6.85      22.82
C       4.82       8.10      22.46
C       5.84       8.09      21.48
C      20.87       6.88      20.91
C      21.32       5.67      21.53
C      22.40       5.62      22.44
C      23.04       6.84      22.81
C      22.43       8.08      22.46
C      21.40       8.07      21.49
C      19.86       6.88      19.82
C      19.41       5.67      19.20
C      18.33       5.62      18.29
C      17.69       6.84      17.92
C      18.30       8.08      18.27
C      19.33       8.07      19.24
C      19.86      20.38       7.43
C      19.41      21.58       8.05
C      18.33      21.64       8.97
C      17.69      20.42       9.33
C      18.30      19.18       8.99
C      19.33      19.18       8.01
C      20.87      20.38       6.35
C      21.32      21.58       5.73
C      22.40      21.64       4.81
C      23.04      20.42       4.45
C      22.43      19.18       4.79
C      21.40      19.18       5.77
C      13.64      14.12      13.07
C      14.84      14.61      12.47
C      14.87      15.65      11.51
C      13.64      16.24      11.09
C      12.41      15.65      11.51
C      12.44      14.60      12.47
C      13.64      13.14      14.18
C      14.84      12.64      14.78
C      14.87      11.61      15.75
C      13.64      11.01      16.17
C      12.41      11.61      15.75
C      12.44      12.65      14.79
C       0.14      13.14      26.55
C      25.89      12.64      25.95
C      25.87      11.61      24.98
C       0.14      11.01      24.56
C       1.37      11.61      24.98
C       1.34      12.65      25.94
C       0.14      14.12       0.71
C      25.89      14.61       1.31
C      25.86      15.65       2.27
C       0.14      16.24       2.69
C       1.37      15.65       2.27
C       1.34      14.60       1.31
C      24.66      24.70       2.93
C      23.67      24.00       2.21
C      22.75      23.12       2.86
C      22.86      22.89       4.27
C      23.75      23.72       5.02
C      24.59      24.64       4.35
C      21.78      22.37       2.02
C      23.99      23.57       6.49
C      16.08       2.56      16.41
C      17.06       3.26      15.69
C      17.97       4.13      16.33
C      17.87       4.36      17.74
C      16.98       3.54      18.50
C      16.15       2.61      17.82
C      18.95       4.89      15.49
C      16.74       3.68      19.96
C       9.39      17.94       9.63
C      10.05      16.92       8.92
C      10.89      15.98       9.58
C      11.15      16.12      10.98
C      10.37      17.06      11.72
C       9.46      17.90      11.04
C      11.57      14.97       8.72
C      10.55      17.34      13.18
C       4.39       9.32      23.10
C       3.74      10.34      22.40
C       2.90      11.28      23.05
C       2.63      11.14      24.45
C       3.41      10.20      25.20
C       4.32       9.36      24.52
C       2.21      12.28      22.19
C       3.23       9.92      26.65
C      16.08      24.70      10.85
C      17.06      24.00      11.57
C      17.98      23.13      10.92
C      17.87      22.90       9.51
C      16.98      23.72       8.76
C      16.15      24.65       9.43
C      18.95      22.37      11.76
C      16.74      23.57       7.29
C      24.66       2.56      24.32
C      23.67       3.26      25.04
C      22.76       4.13      24.40
C      22.86       4.36      22.99
C      23.76       3.54      22.23
C      24.59       2.61      22.91
C      21.78       4.89      25.24
C      24.00       3.68      20.77
C       4.39      17.94       4.15
C       3.74      16.92       4.86
C       2.90      15.98       4.20
C       2.63      16.12       2.80
C       3.41      17.05       2.06
C       4.32      17.90       2.74
C       2.21      14.97       5.07
C       3.23      17.34       0.60
C       9.39       9.31      17.63
C      10.04      10.34      18.34
C      10.88      11.28      17.68
C      11.15      11.14      16.28
C      10.37      10.20      15.53
C       9.46       9.36      16.22
C      11.57      12.28      18.54
C      10.55       9.92      14.08
C       2.63       2.57      24.33
C       3.61       3.27      25.05
C       4.53       4.15      24.41
C       4.42       4.38      23.00
C       3.53       3.55      22.24
C       2.70       2.62      22.92
C       5.50       4.90      25.25
C       3.29       3.70      20.78
C      11.15      24.69      10.85
C      10.17      23.99      11.58
C       9.25      23.11      10.94
C       9.36      22.88       9.53
C      10.25      23.70       8.77
C      11.08      24.64       9.44
C       8.28      22.35      11.78
C      10.49      23.56       7.30
C      17.89       9.29      17.61
C      17.27      10.35      18.31
C      16.43      11.28      17.65
C      16.13      11.11      16.26
C      16.87      10.15      15.52
C      17.79       9.31      16.19
C      15.77      12.35      18.46
C      16.65       9.85      14.07
C      22.85      17.96       4.13
C      23.46      16.91       4.83
C      24.30      15.97       4.18
C      24.61      16.14       2.79
C      23.86      17.10       2.04
C      22.94      17.94       2.72
C      24.96      14.91       4.99
C      24.08      17.41       0.60
C      11.15       2.56      16.40
C      10.17       3.27      15.68
C       9.26       4.15      16.32
C       9.36       4.38      17.73
C      10.25       3.55      18.49
C      11.08       2.62      17.82
C       8.29       4.91      15.48
C      10.49       3.70      19.95
C       2.63      24.69       2.93
C       3.61      23.99       2.20
C       4.53      23.11       2.85
C       4.42      22.88       4.25
C       3.53      23.70       5.01
C       2.70      24.63       4.34
C       5.50      22.36       2.00
C       3.29      23.55       6.48
C      22.85       9.29      23.12
C      23.46      10.35      22.42
C      24.30      11.29      23.08
C      24.61      11.12      24.47
C      23.86      10.15      25.21
C      22.94       9.31      24.54
C      24.96      12.35      22.27
C      24.08       9.85      26.66
C      17.89      17.96       9.65
C      17.27      16.91       8.95
C      16.43      15.97       9.60
C      16.13      16.14      10.99
C      16.87      17.10      11.74
C      17.79      17.94      11.06
C      15.77      14.91       8.79
C      16.65      17.41      13.18
N       0.17       3.95      23.91
N       0.17      23.31       3.35
N      13.62      23.31      10.43
N      13.62       3.95      16.83
N       3.04      20.43       3.75
N      10.74      20.43      10.03
N      10.74       6.83      17.23
N       3.04       6.83      23.51
N      24.24       6.82      23.47
N      16.49       6.82      17.26
N      16.49      20.44      10.00
N      24.24      20.43       3.78
N      13.64      17.36      10.30
N      13.64       9.89      16.95
N       0.15       9.90      23.78
N       0.15      17.36       3.48
