11

Cu       2.16       7.59      22.01
C       4.92       6.18      22.00
C       1.68      10.24      23.51
C       2.92       8.73      24.71
C       0.49       6.80      21.97
C      -0.62       6.20      22.00
N       2.25       8.94      20.36
C       2.73      10.19      20.49
C       1.51       8.67      19.28
N       3.97       6.87      22.11
N       2.21       9.01      23.61
