30

C       7.42       0.42       8.48
C       8.84      -0.73       6.91
C       8.34      -1.94       7.37
C       8.97       1.76       6.96
C       7.40      -2.02       8.41
C       6.94      -0.80       8.95
H       3.68      -4.66       9.13
H       4.88      -2.64       8.30
H       7.39      -6.25      10.58
H       6.19      -0.83       9.74
H       7.05       1.35       8.91
H       9.57      -0.70       6.11
N       8.95      -4.28       9.84
N       8.84      -3.15       6.72
C       8.39       0.47       7.47
O       3.50      -6.90      10.07
C       4.76      -4.56       9.26
O       9.53      -5.34      10.14
C       5.43      -3.43       8.80
C       6.84      -5.47      10.06
C       6.82      -3.28       8.94
C       4.74      -6.79      10.45
C       5.46      -5.59       9.90
O       5.33      -7.57      11.23
O       8.57       2.82       7.60
O       9.77       1.75       6.01
C       7.50      -4.34       9.59
O       9.53      -3.18       9.74
O       8.06      -4.12       6.62
O      10.00      -3.12       6.28
