30

C       9.63       8.03      11.26
C      10.10       9.28      10.59
N       9.01      13.38       7.45
C       9.81      11.66      10.26
C       9.45      10.48      10.91
C      10.82      11.70       9.27
C      11.48      10.49       9.00
C      11.13       9.30       9.64
C      12.58      13.32       8.67
C      13.09      14.42       8.00
C      12.28      15.14       7.11
C      10.94      14.77       6.95
C      11.24      12.91       8.52
C      10.44      13.68       7.66
C      12.81      16.29       6.30
O       7.90      12.74      11.02
O       9.67      13.96      10.52
O       8.62      12.21       7.64
O       8.27      14.32       7.11
H       8.66      10.48      11.65
H      12.27      10.48       8.25
H      11.65       8.38       9.39
H      13.22      12.76       9.36
O      10.28       6.94      10.95
O       8.65       8.07      12.05
H      10.31      15.33       6.27
H      14.12      14.74       8.15
O      13.96      16.74       6.70
O      12.13      16.73       5.34
N       9.07      12.87      10.63
