33

N       2.47      20.30      21.77
N       2.96      19.76      19.69
N       2.47      17.98      12.88
N       2.87      18.38      15.02
N       9.08      17.73      17.96
N       6.87      17.63      17.69
H       5.45      18.75      19.65
H       1.86      19.33      17.33
H       5.39      17.57      15.52
H       3.90      18.75      21.38
H       0.94      21.75      21.35
H       1.56      21.09      18.69
H       4.38      17.52      13.69
H       0.44      18.72      12.84
H       0.90      19.18      15.53
H       7.82      19.34      18.62
H       9.51      15.83      17.04
H       6.75      15.72      16.70
C       4.91      18.67      18.71
C       3.60      19.15      18.58
C       2.91      19.04      17.37
C       3.55      18.46      16.26
C       4.86      17.99      16.37
C       5.52      18.08      17.60
C       3.23      19.52      21.01
C       1.67      21.06      20.93
C       1.96      20.73      19.63
C       3.38      17.89      13.84
C       1.33      18.54      13.43
C       1.56      18.80      14.76
C       7.94      18.36      18.18
C       8.75      16.55      17.32
C       7.39      16.47      17.13
