12

O       2.20       6.80       9.74
O       1.44       4.90      10.73
H       1.94       6.42      12.84
H       4.60       5.40      11.69
O       3.33       7.67      11.94
H       3.35       4.31      12.29
O       5.35       4.66      14.09
O       3.85       6.24      14.62
C       2.05       6.00      10.74
C       2.72       6.38      12.07
C       3.77       5.33      12.41
C       4.37       5.42      13.79
