12

H       1.14       1.94       3.18
O       0.75       2.20       0.08
O       2.66       1.44       1.07
H       2.15       4.60       2.03
H       3.24       3.35       2.63
O      -0.11       3.33       2.28
O       2.89       5.35       4.43
O       1.32       3.85       4.96
C       1.55       2.05       1.08
C       1.17       2.72       2.40
C       2.23       3.77       2.75
C       2.13       4.37       4.13
