200

Zn      12.08       1.83       2.30
Zn      12.10      14.87       5.61
Zn       8.65       2.49       6.98
Zn      16.99       5.69       5.18
Zn      16.01      14.56      12.17
Zn      15.99       1.51       8.87
Zn      19.45      13.89       7.49
Zn      11.10      10.69       9.29
H       9.27       2.10       9.82
H       8.75       5.36       7.63
H      18.07       2.74       5.21
H      11.97      13.73       2.92
H      10.95       2.61       5.10
H       8.25      12.64       5.53
H      16.36       0.74       4.08
H      21.49      13.45       3.83
H       1.19       0.40       1.64
H       9.24      13.88       2.01
H       6.90      11.90       1.90
H       9.92      11.45       2.24
H       8.72      10.17       2.04
H       7.56      10.85       4.11
H       9.27      10.57       4.46
H      12.92       3.22       8.15
H      12.53       4.27      10.43
H      13.95       4.85       9.54
H      12.79       6.78      10.55
H      11.26       6.31       9.81
H      13.79       7.14       8.31
H      12.34       7.02       6.26
H      11.00       6.45       7.25
H      12.22       4.53       6.14
H      13.72       5.08       6.88
H      17.94       8.12       1.62
H      15.63       7.32       1.05
H      16.30       5.80       0.46
H       4.17       5.35       0.71
H       5.18       6.59       1.46
H      13.78      12.90      12.53
H      12.73      11.86      11.57
H      20.19       8.38       6.99
H      18.70       7.51       6.53
H      15.57       2.77      14.15
H      10.08       0.98       0.33
H      18.83      14.29       4.65
H      19.34      11.02       6.84
H      10.02      13.64       9.26
H      16.12       2.65      11.55
H      17.14      13.77       9.37
H      19.84       3.75       8.94
H      11.73      15.65      10.39
H       6.60       2.94      10.64
H      26.90      15.99      12.83
H      18.85       2.50      12.46
H      21.19       4.49      12.58
H      18.18       4.93      12.24
H      19.37       6.22      12.43
H      20.53       5.53      10.36
H      18.82       5.82      10.01
H      15.17      13.17       6.32
H      15.56      12.11       4.04
H      14.14      11.54       4.94
H      15.30       9.60       3.92
H      16.83      10.08       4.66
H      14.30       9.25       6.16
H      15.75       9.36       8.21
H      17.09       9.94       7.22
H      15.87      11.86       8.33
H      14.37      11.31       7.59
H      10.15       8.26      12.86
H      12.46       9.06      13.42
H      11.79      10.58      14.01
H      23.92      11.03      13.76
H      22.91       9.80      13.01
H      14.31       3.49       1.94
H      15.36       4.52       2.90
H       7.90       8.00       7.48
H       9.39       8.88       7.95
H      12.52      13.61       0.32
H      18.01      15.40      14.14
C      14.94      15.21       9.66
C      13.48      14.15       8.29
C      13.18      13.20       9.28
C      13.77      13.32      10.56
C      12.03      12.75       7.51
C       7.74       5.28       7.25
C       6.07       3.98       6.41
C       5.22       5.10       6.34
C       5.71       6.36       6.76
C       4.15       3.38       5.62
C      12.97      14.17       2.90
C       8.28       1.23       4.03
C       9.09       1.19       2.88
C       8.53       0.68       1.68
C      10.18       2.12       4.51
C       8.68      12.65       4.52
C       7.87      13.67       3.69
C       8.19      13.61       2.19
C       7.94      12.18       1.67
C       8.87      11.19       2.42
C       8.58      11.23       3.93
C      10.13      13.09       4.75
C       8.06      12.03       0.18
C      12.36       4.15       8.27
C      12.85       4.85       9.55
C      12.35       6.30       9.67
C      12.69       7.12       8.40
C      12.10       6.45       7.16
C      12.64       5.02       7.03
C      10.90       3.68       8.35
C      12.24       8.55       8.62
C      17.75       7.05       1.47
C      16.51       6.87       0.57
C       4.32       6.44       0.81
C      17.56       6.46       2.85
C      13.15       1.17       4.81
C      14.61       2.24       6.18
C      14.91       3.19       5.19
C      14.32       3.06       3.91
C      16.06       3.64       6.96
C      20.35      11.11       7.23
C      22.02      12.40       8.06
C      22.87      11.28       8.13
C      22.38      10.02       7.71
C      23.94      13.01       8.85
C      15.12       2.22      11.57
C      19.81      15.15      10.44
C      19.00      15.19      11.59
C      19.56      15.71      12.79
C      17.91      14.26       9.96
C      19.41       3.74       9.96
C      20.22       2.72      10.78
C      19.90       2.78      12.28
C      20.15       4.21      12.80
C      19.22       5.20      12.05
C      19.52       5.15      10.54
C      17.96       3.30       9.72
C      20.03       4.36      14.29
C      15.73      12.23       6.20
C      15.24      11.54       4.92
C      15.74      10.09       4.80
C      15.40       9.27       6.07
C      15.99       9.94       7.31
C      15.45      11.37       7.44
C      17.19      12.71       6.12
C      15.85       7.84       5.85
C      10.34       9.34      13.01
C      11.58       9.51      13.90
C      23.78       9.95      13.66
C      10.53       9.92      11.63
N      14.70      14.36      10.68
N      14.37      15.16       8.45
N      12.24      12.32       8.74
N      12.73      13.87       7.18
N      13.51      12.55      11.61
N       7.02       6.40       7.20
N       7.34       4.04       6.88
N      18.69       4.70       5.84
N       5.38       2.89       5.95
N      19.70       7.49       6.76
N      13.63      14.13       1.75
N       7.01       0.75       4.07
N      10.31       1.77       3.21
N       8.98       1.82       5.06
N       9.12       0.64       0.48
N      13.39       2.03       3.79
N      13.72       1.23       6.02
N      15.85       4.07       5.73
N      15.36       2.52       7.29
N      14.58       3.84       2.86
N      21.07       9.99       7.27
N      20.75      12.35       7.59
N       9.40      11.69       8.63
N      22.71      13.50       8.52
N       8.39       8.89       7.71
N      14.46       2.26      12.72
N      21.08      15.63      10.40
N      17.78      14.62      11.26
N      19.11      14.56       9.42
N      18.97      15.74      13.99
O      14.17      13.95      13.98
O      16.19      14.91      14.06
O      10.28      14.36       5.05
O      11.07      12.27       4.70
O      10.46       3.15       7.23
O      10.23       3.75       9.40
O      11.21       9.01       8.00
O      12.85       9.27       9.46
O      16.86       5.40       3.02
O      18.12       7.03       3.83
O      13.92       2.44       0.50
O      11.90       1.48       0.41
O      17.81       2.03       9.42
O      17.02       4.12       9.77
O      17.63      13.24       7.24
O      17.86      12.63       5.08
O      16.88       7.37       6.47
O      15.23       7.11       5.01
O      11.24      10.99      11.45
O       9.97       9.36      10.64
