9

Co       1.66       5.57      11.42
C       0.42       3.52      11.73
C       1.99       8.46      11.55
N       2.49       5.26       9.62
O      -0.17       4.65      11.59
O       1.70       3.51      11.86
C       2.75       4.05       9.10
O       1.23       7.39      11.59
C       2.47       6.14       8.55
