25

N      -3.04       3.42      22.89
H      -3.14      -4.72      21.94
H      -5.30      -1.00      22.15
H      -0.99      -1.01      22.20
H      -4.31       3.64      21.27
O       0.37      -2.75      21.76
O      -0.44      -4.85      22.06
O      -5.70      -4.87      22.21
O      -6.70      -2.85      21.88
C      -1.93      -2.93      22.04
C      -3.14      -3.63      22.00
C      -4.35      -2.92      22.01
C      -4.34      -1.52      22.10
C      -3.14      -0.82      22.21
C      -1.94      -1.54      22.17
C      -0.58      -3.60      21.95
C      -5.68      -3.61      22.02
C      -3.77       2.91      21.88
C      -3.85       1.54      21.63
C      -3.11       0.65      22.42
C      -2.32       1.20      23.44
C      -2.32       2.57      23.65
H      -4.45       1.17      20.80
H      -1.74       0.55      24.09
H      -1.75       3.04      24.44
