25

N       2.33      -0.89      22.33
H       0.19       3.55      23.05
H       4.49       3.56      22.70
H       2.35       7.23      23.41
O      -0.33       7.36      23.47
O      -1.10       5.27      23.92
O       4.94       7.39      23.34
O       5.89       5.41      22.77
H       0.84       1.50      24.18
H       0.91      -0.98      23.83
H       3.76      -0.63      20.86
H       3.81       1.86      21.07
C       1.14       5.45      23.27
C       1.14       4.07      23.06
C       2.33       3.36      22.84
C       3.54       4.08      22.84
C       3.56       5.46      23.05
C       2.35       6.16      23.25
C       1.52      -0.30      23.23
C       1.49       1.07      23.42
C       2.32       1.90      22.65
C       3.16       1.27      21.71
C       3.13      -0.11      21.58
C      -0.18       6.11      23.56
C       4.90       6.15      23.05
