22

Sc       9.03       3.25      13.41
Sc       7.33       6.19      13.41
Sc       5.64       3.25      13.41
C       9.67       5.58      15.45
C       4.99       5.58      15.45
C       7.33       1.53      15.45
C       9.67       5.58      11.37
C       7.33       1.53      11.37
C       4.99       5.58      11.37
O       9.92       4.43      14.90
O       5.87       6.38      14.90
O       6.20       1.90      14.90
O       8.79       6.38      11.93
O       8.46       1.90      11.93
O       4.75       4.43      11.93
O       9.92       4.43      11.93
O       5.87       6.38      11.93
O       6.20       1.90      11.93
O       8.79       6.38      14.90
O       8.46       1.90      14.90
O       4.75       4.43      14.90
O       7.33       4.23      13.42
