15

C       2.67      10.20      10.90
N       2.12       8.98      11.05
C       1.85       4.95      12.83
C       4.98       4.50       9.81
C       0.79       8.89      11.29
N       4.74       5.18      10.96
C       5.15       4.63      12.13
Cl       5.04       8.17      12.26
Cl       1.74       5.92       9.53
C       3.72       8.37       7.99
C       5.75       7.85       8.99
N       2.33       6.21      12.81
C       2.32       6.94      13.94
Rh       3.37       7.04      10.93
N       4.41       7.81       9.00
