15

N      13.42       3.66       2.27
C      12.94      -0.16       4.31
C      10.93       5.27       5.31
N      11.26       2.09       6.18
C      11.98       1.56       7.19
C      14.82       1.17       3.92
C      10.69       5.11       3.00
C       9.92       1.97       6.20
Cl      10.69       1.73       2.89
Cl      13.93       3.92       5.55
N      13.49       1.07       4.14
C      13.38       2.97       1.11
Rh      12.31       2.83       4.18
N      11.15       4.59       4.16
C      13.93       4.91       2.28
