50

N       1.01      11.59      12.56
N      -0.99      11.01      12.15
N       7.71      13.29      12.55
N       9.71      13.87      12.14
O       0.48      16.57      11.59
O       1.79      17.50       9.97
O       8.25       8.32      11.59
O       6.94       7.38       9.97
C       1.45      16.55      10.76
C       2.29      15.32      10.70
C       1.96      14.21      11.50
H       3.67      16.14       9.22
H      -1.80      11.14      14.17
H       0.83      11.89      14.72
H       1.08      14.26      12.13
C       2.74      13.05      11.49
C       3.90      13.02      10.66
C       4.15      14.13       9.89
C       3.42      15.29       9.86
C      -0.94      11.25      13.52
C       0.34      11.62      13.79
H       2.87      12.03      13.38
C       2.43      11.86      12.38
H       2.91      10.97      11.97
C       0.20      11.20      11.51
C      -2.21      10.65      11.43
H      -2.97      11.44      11.53
H      -1.95      10.54      10.37
H      -2.63       9.70      11.80
H       7.65      10.62      12.12
H       5.05       8.74       9.22
H      10.51      13.74      14.17
H       7.89      12.98      14.71
H      11.68      13.45      11.52
H      10.66      14.35      10.37
H      11.34      15.18      11.80
H       5.85      12.84      13.38
H       5.80      13.90      11.97
C       7.28       8.33      10.76
C       6.44       9.56      10.70
C       6.77      10.67      11.49
C       5.98      11.82      11.48
C       4.82      11.85      10.66
C       4.57      10.74       9.89
C       5.31       9.59       9.85
C       9.66      13.63      13.52
C       8.37      13.25      13.78
C      10.93      14.24      11.43
C       6.28      13.01      12.38
C       8.51      13.68      11.51
