50

N       3.35       0.85       9.03
N       5.35       1.43       9.43
H       3.29      -1.82       9.46
H       0.69      -3.70      12.36
H       6.15       1.30       7.41
H       3.53       0.56       6.87
H       7.33       1.00      10.04
H       6.31       1.89      11.21
H       6.99       2.74       9.79
H       1.49       0.41       8.21
H       1.45       1.47       9.62
N      -3.35      -0.85       9.03
N      -5.36      -1.43       9.43
O       3.89      -4.12      10.00
O       2.57      -5.06      11.61
C      -2.91       4.11      10.83
C      -2.07       2.88      10.89
C      -2.40       1.77      10.10
C      -1.62       0.61      10.10
C      -0.46       0.58      10.92
C      -0.21       1.70      11.69
C      -0.94       2.85      11.73
O      -3.88       4.13      10.00
H      -3.29       1.82       9.47
O      -2.58       5.06      11.63
C      -1.93      -0.57       9.20
H      -0.69       3.70      12.36
C      -4.02      -0.81       7.80
C      -4.16      -1.24      10.07
H      -3.53      -0.55       6.87
H      -1.50      -0.40       8.21
H      -1.45      -1.47       9.62
C      -6.58      -1.80      10.15
H      -6.15      -1.30       7.41
H      -7.33      -1.01      10.04
H      -6.32      -1.90      11.20
H      -6.99      -2.74       9.78
C      -5.30      -1.19       8.06
C       2.91      -4.11      10.82
C       2.08      -2.88      10.88
C       2.41      -1.77      10.09
C       1.62      -0.61      10.10
C       0.46      -0.58      10.92
C       0.21      -1.70      11.69
C       0.95      -2.85      11.73
C       5.30       1.19       8.06
C       4.01       0.82       7.80
C       6.58       1.79      10.15
C       1.93       0.58       9.20
C       4.16       1.24      10.07
