66

Zn       8.80      -2.35       9.02
N       9.40      -2.23      10.96
N      10.33      -1.28      11.28
N       8.33      -8.73       3.81
Zn       8.86      -1.69      15.06
N      10.62      -1.39      16.05
N      11.85      -1.65      15.51
N       7.71      -8.34       4.97
Zn       8.84      -7.91       6.56
N       9.34      -9.48       7.72
N      10.29     -10.36       7.28
N       4.98       3.33       9.08
N       5.91       3.13       8.09
Zn       4.39       1.71      10.16
Zn      13.24       0.66       6.05
Zn       4.45       2.37      16.20
C      11.27      -0.96       7.76
C       8.86      -5.37       8.32
C       6.85      -0.07       9.58
C       4.46       2.62      13.12
C      15.69       1.05       7.89
C       8.87      -4.48      16.40
C      10.81      -6.29       4.85
C      13.21      -1.88       4.29
C       6.40       0.09      15.64
C       8.80      -2.60      12.10
C      10.81      -1.04      17.33
C       8.79     -10.01       8.82
N       9.95      -1.20       7.85
N       9.33      -0.39       6.93
N      10.24       0.31       6.31
N      11.47      -0.03       6.81
N       8.31      -4.14       8.23
N       7.36      -4.20       7.25
N       7.33      -5.41       6.77
N       8.26      -6.17       7.42
N       5.53       0.13       9.74
N       4.91      -1.07       9.49
N       5.82      -1.96       9.19
N       7.05      -1.35       9.24
N       3.90       1.93      12.10
N       2.95       1.11      12.65
N       2.93       1.30      13.94
N       3.86       2.25      14.26
N      14.37       1.09       7.64
N      13.75       1.48       8.80
N       1.41       1.67       9.71
N       2.63       1.40       9.17
N      12.74       2.23       4.89
N      11.79       3.11       5.33
N       7.34      -3.12      17.13
N       8.27      -3.31      16.14
N      12.13      -6.05       4.76
N      12.75      -6.86       5.68
N      11.84      -7.55       6.30
N      10.61      -7.22       5.80
N      13.77      -3.11       4.38
N      14.72      -3.05       5.36
N      14.74      -1.84       5.84
N      13.82      -1.08       5.19
N       7.72      -0.11      15.48
N       8.34       1.09      15.73
N       7.43       1.97      16.03
N       6.21       1.37      15.98
N       9.36      -1.91      13.12
N      10.31      -1.09      12.57
