13

N       6.78       1.18       5.24
N       5.54       1.44       4.67
N       5.87      -0.76       4.61
H       3.27       1.11       3.42
H       3.82      -0.41       2.66
C       5.02       0.26       4.30
C       3.70       0.12       3.62
H       3.00      -0.47       4.22
C       6.94      -0.15       5.19
C       8.12      -0.88       5.71
H       8.80      -0.21       6.24
H       7.79      -1.67       6.40
H       8.71      -1.39       4.91
