13

N       0.44       0.87       8.62
N      -0.80       1.25       9.13
N      -0.49       2.32       7.20
H      -3.06       2.54       9.44
H      -2.51       3.89       8.42
H      -3.36       2.53       7.67
C      -2.64       2.80       8.46
C      -1.33       2.12       8.27
C       0.59       1.53       7.46
C       1.77       1.40       6.56
H       2.57       0.86       7.07
H       1.50       0.86       5.65
H       2.17       2.39       6.26
