13

C      -3.62       6.06       5.03
C      -4.79       6.79       4.51
H       0.06       4.80       6.80
H      -0.50       6.32       7.55
H       0.33       6.38       5.99
H      -5.47       6.12       3.98
H      -4.46       7.58       3.81
H      -5.39       7.30       5.30
N      -3.45       4.73       4.97
N      -2.21       4.47       5.55
N      -2.54       6.67       5.61
C      -0.38       5.79       6.60
C      -1.69       5.65       5.92
