16

H       7.90       5.08       7.55
H      10.52       5.46       4.51
H       8.79       6.04       3.10
H       6.18       5.66       6.13
C       9.40       5.19       6.17
C       8.08       5.27       6.65
C       9.65       5.49       4.84
C      10.51       4.76       7.08
C       7.30       5.92       4.48
C       8.62       5.85       3.99
C       7.05       5.62       5.81
C       6.19       6.35       3.56
O      10.26       4.57       8.30
O      11.67       4.58       6.63
O       6.43       6.55       2.35
O       5.03       6.54       4.01
