228

La      -2.49       1.96      11.58
La       9.87      -1.94      11.57
La       6.48       4.59       3.86
La      -5.88       8.49       3.86
H      -4.60       6.70       8.11
H      -3.13       5.61       9.89
H      -0.24      12.19       0.68
H      -2.73       4.87      14.20
H      -2.86       2.10       7.72
H      10.27       2.99       5.94
H      -7.62       4.84      13.63
H      -2.52      12.06       1.68
H      -3.94      11.79       0.69
H      -6.01       4.12      11.81
H       5.21       6.40       8.13
H       3.73       7.50       9.89
H       0.81       0.90       0.68
H      10.13      -4.86      14.19
H      10.26      -2.09       7.70
H       5.07      10.10       5.93
H       0.28      -4.83      13.63
H       3.08       1.03       1.68
H       4.51       1.30       0.69
H      -1.33      -4.11      11.81
H       4.70      -2.25      15.05
H       6.35      -3.06      13.27
H       5.81      -2.12       7.03
H       7.17      -3.07       8.95
H      -5.15      -1.69      15.43
H      -2.71       5.87       1.78
H       4.95       1.29       9.53
H       4.88      -0.04       6.04
H       4.46       1.34       7.04
H       6.34       0.18      11.34
H       2.70       2.26      15.03
H       1.04       3.06      13.27
H       1.57       2.13       7.04
H       0.21       3.07       8.97
H       1.78       8.23       0.02
H       3.31       7.22       1.79
H       2.43      -1.28       9.53
H       2.50       0.06       6.04
H       2.92      -1.33       7.03
H       1.05      -0.18      11.34
H       8.59      -0.15       7.33
H       7.12       0.94       5.55
H       4.23      -5.64      14.75
H       6.73       1.68       1.24
H       6.85       4.45       7.71
H      -6.28       3.56       9.50
H      11.61       1.71       1.81
H       6.51      -5.51      13.76
H       7.93      -5.24      14.75
H      10.00       2.43       3.62
H      -1.22       0.15       7.31
H       0.26      -0.95       5.55
H       3.18       5.65      14.76
H      -6.14      11.41       1.25
H      -6.26       8.64       7.74
H      -1.08      -3.55       9.51
H       3.71      11.38       1.81
H       0.91       5.52      13.76
H      -0.52       5.25      14.75
H       5.32      10.66       3.62
H      -0.71       8.80       0.39
H      -2.35       9.61       2.17
H      -1.82       8.67       8.40
H      -3.18       9.62       6.48
H       9.14       8.24       0.01
H       6.71       0.68      13.66
H      -0.96       5.26       5.91
H      -0.89       6.59       9.40
H      -0.47       5.21       8.40
H      -2.34       6.37       4.10
H       1.29       4.29       0.41
H       2.95       3.49       2.17
H       2.42       4.42       8.40
H       3.78       3.48       6.47
H       2.21      -1.67      15.42
H       0.68      -0.67      13.65
H       1.56       7.83       5.91
H       1.49       6.49       9.40
H       1.07       7.88       8.41
H       2.94       6.73       4.09
C      -4.60       4.94       6.85
C      -5.46       5.53       5.79
C      -4.23       5.68       7.99
C      -3.42       5.13       8.96
C      -4.65       5.34      15.18
C      -3.82       4.96      14.15
C      -3.28       3.10       7.72
C      -4.13       3.61       6.76
C      -6.55       4.89      13.80
C      -6.05       5.33      15.04
C      -2.98      12.32       0.72
C      -5.70       4.50      12.78
C       5.21       8.15       6.85
C       6.06       7.55       5.79
C       4.84       7.42       8.00
C       4.02       7.97       8.96
C      -2.69      -5.33      15.17
C      -3.52      -4.94      14.14
C      10.67      -3.10       7.70
C       4.74       9.47       6.75
C      -0.79      -4.88      13.80
C      -1.29      -5.32      15.04
C       3.55       0.77       0.72
C      -1.64      -4.49      12.78
C      10.22       5.10       0.87
C       9.30       5.58       1.93
C       5.78      -2.11      15.16
C       6.64      -2.59      14.20
C       5.87      -1.58       7.98
C       6.60      -2.15       9.01
C      -2.27       4.76       0.00
C      -3.12       5.28       0.95
C       5.40       0.31       9.36
C       5.24      -0.33       8.12
C       4.43       0.25       7.00
C       6.14      -0.27      10.37
C       5.11       7.99       0.87
C       6.04       7.51       1.93
C       1.63       2.12      15.16
C       0.76       2.59      14.20
C       1.51       1.59       7.98
C       0.78       2.15       9.01
C       2.86       8.32       0.02
C       3.71       7.80       0.97
C       1.98      -0.30       9.36
C       2.14       0.34       8.12
C       2.95      -0.23       7.00
C       1.25       0.27      10.38
C       8.59       1.61       8.58
C       9.45       1.02       9.65
C       8.23       0.87       7.44
C       7.41       1.42       6.48
C       8.64       1.21       0.26
C       7.81       1.59       1.29
C       7.27       3.45       7.72
C       8.12       2.94       8.67
C      10.54       1.66       1.64
C      10.04       1.22       0.40
C       6.97      -5.77      14.72
C       9.69       2.05       2.66
C      -1.22      -1.60       8.59
C      -2.07      -1.00       9.65
C      -0.85      -0.87       7.44
C      -0.03      -1.42       6.48
C       6.68      11.88       0.26
C       7.51      11.49       1.29
C      -6.68       9.65       7.74
C      -0.74      -2.92       8.68
C       4.78      11.43       1.64
C       5.28      11.87       0.40
C       0.44       5.78      14.72
C       5.63      11.04       2.66
C      -6.23       1.45      14.57
C      -5.31       0.97      13.51
C      -1.78       8.66       0.27
C      -2.64       9.14       1.24
C      -1.88       8.13       7.46
C      -2.61       8.70       6.43
C       6.26       1.79      15.44
C       7.11       1.27      14.48
C      -1.41       6.24       6.08
C      -1.25       6.88       7.32
C      -0.44       6.30       8.44
C      -2.15       6.82       5.06
C      -1.12      -1.44      14.57
C      -2.05      -0.96      13.51
C       2.36       4.43       0.28
C       3.23       3.96       1.24
C       2.49       4.96       7.46
C       3.21       4.40       6.42
C       1.13      -1.77      15.42
C       0.28      -1.25      14.47
C       2.01       6.85       6.08
C       1.86       6.21       7.32
C       1.04       6.78       8.44
C       2.74       6.28       5.06
N      -2.89       3.88       8.78
N      -4.34       4.56      12.95
N       3.49       9.22       8.77
N      -3.00      -4.55      12.94
N       7.99      -2.48      14.37
N       6.71      -1.50      10.21
N      -0.60       2.48      14.38
N       0.67       1.50      10.22
N       6.88       2.67       6.65
N       8.33       1.99       2.49
N       0.50      -2.67       6.67
N       6.99      11.10       2.50
N      -4.00       9.03       1.07
N      -2.72       8.05       5.23
N       4.59       4.07       1.05
N       3.32       5.05       5.22
O      -1.96       3.43       9.63
O      -3.54       4.26      11.94
O      -5.53       6.81       5.73
O       8.69       4.71       5.00
O       9.35      -3.41       9.61
O      10.94      -4.24      11.94
O       6.13       6.27       5.73
O       6.66       8.36       5.00
O       8.82      -3.09      13.52
O       7.35      -2.07      11.21
O       8.14       5.06       1.99
O       9.76       6.48       2.72
O      -1.43       3.10      13.55
O       0.04       2.07      11.22
O       7.20       8.04       1.98
O       5.60       6.60       2.72
O       5.95       3.12       5.81
O       7.53       2.29       3.49
O       9.52      -0.26       9.71
O      -4.70       1.84      10.44
O      -5.35       9.96       5.83
O      -6.95      10.79       3.50
O      -2.14       0.28       9.70
O      -2.67      -1.81      10.44
O      -4.83       9.65       1.91
O      -3.36       8.62       4.23
O      -4.15       1.49      13.45
O      -5.76       0.07      12.72
O       5.42       3.45       1.89
O       3.96       4.48       4.22
O      -3.21      -1.49      13.45
O      -1.60      -0.05      12.72
