15

H       0.51       3.45       5.77
H      -3.39       5.20       6.30
H      -0.55       6.79       3.51
N       0.08       5.10       4.56
C      -0.25       4.18       5.50
C      -1.49       4.18       6.14
C      -2.43       5.16       5.80
C      -2.10       6.11       4.84
C      -0.84       6.04       4.23
C      -1.80       3.23       7.28
O      -4.14       7.28       5.12
O      -1.01       2.28       7.50
O      -2.85       3.52       7.96
O      -2.50       8.22       3.88
C      -3.00       7.28       4.58
