15

H       5.03       2.38      10.35
C       2.56       1.91       9.27
N       5.68       4.04       9.28
O       4.58       6.89       6.33
O       2.78       5.59       5.86
O       3.06       0.94       9.94
O       1.41       1.96       8.76
C       3.82       5.91       6.54
C       4.74       3.13       9.61
C       5.36       4.96       8.33
C       4.12       4.98       7.69
C       3.17       4.02       8.05
C       3.49       3.07       9.01
H       6.13       5.68       8.04
H       2.21       3.98       7.55
