272

V       1.26      15.75       5.98
V       5.99       5.05      17.93
V       4.89      15.44       5.98
V       2.36       5.35      17.93
H       5.72      15.00      14.46
H       4.08      14.55      13.86
H       4.52      14.27      15.58
H       4.61      12.13      14.38
H       6.26      12.62      14.87
H       6.58      13.63      12.53
H       4.99      12.95      12.06
H       3.17       6.25      10.05
H       1.53       5.79       9.45
H       2.73       6.53       8.32
H       0.99       8.17       9.03
H       2.64       8.66       9.52
H       2.25       7.85      11.84
H       0.67       7.17      11.38
H       1.53       5.79       2.51
H       3.17       6.25       1.90
H       2.73       6.53       3.63
H       2.64       8.66       2.43
H       0.99       8.17       2.92
H       0.67       7.17       0.58
H       2.25       7.85       0.11
H       4.08      14.55      22.00
H       5.72      15.00      21.40
H       4.52      14.27      20.27
H       6.26      12.62      20.98
H       4.61      12.13      21.47
H       4.99      12.95      23.79
H       6.58      13.63      23.33
H       2.10      16.19      21.40
H       0.45      16.64      22.00
H       0.89      16.93      20.28
H       0.98      19.06      21.48
H       2.63      18.57      20.98
H       2.96      17.57      23.33
H       1.37      18.24      23.79
H       6.80       4.15       1.90
H       5.15       4.60       2.50
H       6.36       3.87       3.63
H       4.62       2.22       2.92
H       6.27       1.74       2.43
H       5.88       2.55       0.11
H       4.29       3.23       0.57
H       5.15       4.60       9.45
H       6.80       4.15      10.05
H       6.36       3.87       8.32
H       6.27       1.74       9.52
H       4.62       2.23       9.03
H       4.29       3.23      11.38
H       5.88       2.55      11.84
H       0.45      16.64      13.85
H       2.10      16.19      14.46
H       0.89      16.93      15.58
H       2.63      18.57      14.87
H       0.98      19.06      14.38
H       1.37      18.25      12.06
H       2.96      17.57      12.53
H       1.83      12.01      15.94
H       5.42       8.78       7.96
H       5.42       8.78       3.99
H       1.83      12.01      19.91
H       5.44      19.17      19.91
H       1.81       1.62       3.99
H       1.80       1.62       7.96
H       5.45      19.18      15.94
H       2.78       9.48      14.97
H       2.88       7.81      14.25
H       3.49       8.13      15.92
H       5.20       7.87      14.19
H       5.28       9.49      15.06
H       4.01      10.44      13.06
H       4.22       8.86      12.25
H       4.37      12.99       9.65
H       4.47      11.31       8.93
H       3.76      12.66       7.98
H       1.97      11.30       8.84
H       2.05      12.93       9.72
H       3.03      11.93      11.65
H       3.24      10.35      10.84
H       4.47      11.31       3.02
H       4.37      12.99       2.30
H       3.76      12.66       3.97
H       2.05      12.93       2.24
H       1.97      11.31       3.11
H       3.24      10.35       1.11
H       3.03      11.93       0.30
H       2.88       7.81      21.60
H       2.78       9.48      20.88
H       3.49       8.14      19.93
H       5.28       9.49      20.79
H       5.20       7.87      21.67
H       4.22       8.86      23.60
H       4.01      10.44      22.79
H       6.40       0.90      20.89
H       6.50       2.59      21.58
H       7.11       2.23      19.92
H       1.57       2.52      21.65
H       1.66       0.90      20.79
H       0.38      20.75      22.80
H       0.60       1.54      23.60
H       0.75      18.21       2.31
H       0.84      19.89       3.02
H       0.13      18.55       3.98
H       5.59      19.90       3.11
H       5.68      18.27       2.24
H       6.65      19.26       0.31
H       6.86       0.05       1.11
H       0.84      19.89       8.93
H       0.75      18.21       9.64
H       0.13      18.55       7.97
H       5.68      18.27       9.71
H       5.59      19.89       8.84
H       6.86       0.05      10.84
H       6.65      19.26      11.65
H       6.50       2.59      14.26
H       6.41       0.91      14.97
H       7.12       2.25      15.93
H       1.66       0.90      15.06
H       1.57       2.53      14.19
H       0.60       1.54      12.26
H       0.39      20.75      13.06
C       3.28      17.24       7.79
C       3.97       3.56      16.11
C       3.97       3.56      19.74
C       3.28      17.24       4.16
C       6.90      13.96       4.16
C       0.34       6.84      19.74
C       0.34       6.84      16.11
C       6.90      13.96       7.79
C       0.69      11.03      12.91
C       6.56       9.76      11.00
C       6.56       9.76       0.95
C       0.69      11.03      22.95
C       4.32      20.16      22.95
C       2.93       0.64       0.95
C       2.93       0.64      11.00
C       4.32      20.16      12.91
C       6.57      11.48      12.35
C       0.68       9.31      11.55
C       0.68       9.31       0.40
C       6.56      11.48      23.50
C       2.94      19.71      23.50
C       4.31       1.08       0.40
C       4.31       1.08      11.55
C       2.94      19.71      12.35
C       6.91      12.99       8.87
C       0.34       7.81      15.03
C       0.34       7.81      20.82
C       6.91      12.99       3.08
C       3.28      18.20       3.08
C       3.96       2.59      20.82
C       3.97       2.59      15.03
C       3.28      18.20       8.87
C       1.20      10.78      11.46
C       6.05      10.01      12.44
C       6.05      10.01      23.41
C       1.20      10.78       0.49
C       4.82      20.41       0.49
C       2.43       0.38      23.41
C       2.43       0.38      12.44
C       4.82      20.41      11.46
C       7.06      11.22      10.91
C       0.18       9.57      12.99
C       0.18       9.57      22.86
C       7.06      11.22       1.04
C       3.44      19.97       1.04
C       3.81       0.82      22.86
C       3.81       0.82      12.99
C       3.44      19.97      10.91
C       6.91      12.18       9.78
C       0.33       8.61      14.12
C       0.33       8.61      21.74
C       6.91      12.18       2.17
C       3.29      19.01       2.17
C       3.96       1.78      21.73
C       3.96       1.79      14.12
C       3.29      19.01       9.78
C       5.87      12.80      12.73
C       5.42      12.86      14.19
C       4.90      14.26      14.54
C       1.38       8.00      11.17
C       1.83       7.93       9.71
C       2.35       6.54       9.36
C       1.38       8.00       0.78
C       1.83       7.93       2.24
C       2.35       6.54       2.59
C       5.87      12.80      23.13
C       5.42      12.86      21.66
C       4.90      14.26      21.31
C       2.24      18.39      23.13
C       1.79      18.33      21.66
C       1.27      16.93      21.32
C       5.01       2.40       0.77
C       5.46       2.47       2.24
C       5.97       3.86       2.58
C       5.01       2.40      11.18
C       5.46       2.47       9.71
C       5.97       3.86       9.36
C       2.24      18.39      12.73
C       1.79      18.33      14.19
C       1.28      16.93      14.54
C       1.39      11.82      13.98
C       5.86       8.98       9.92
C       5.86       8.98       2.03
C       1.39      11.82      21.87
C       5.01      19.37      21.87
C       2.24       1.42       2.03
C       2.23       1.42       9.92
C       5.02      19.37      13.98
C       4.67       9.57      12.98
C       4.73       8.86      14.33
C       3.38       8.56      14.90
C       2.58      11.23      10.93
C       2.52      11.93       9.57
C       3.87      12.23       9.00
C       2.58      11.23       1.02
C       2.52      11.93       2.38
C       3.87      12.24       2.95
C       4.67       9.57      22.88
C       4.73       8.86      21.52
C       3.37       8.56      20.95
C       1.05       0.83      22.88
C       1.10       1.53      21.52
C       7.00       1.82      20.94
C       6.20      19.96       1.03
C       6.14      19.26       2.38
C       0.25      18.97       2.96
C       6.20      19.96      10.93
C       6.14      19.26       9.57
C       0.25      18.96       9.00
C       1.05       0.83      12.98
C       1.11       1.53      14.33
C       7.00       1.83      14.91
O       4.46      16.77       4.60
O       2.79       4.02      19.31
O       2.79       4.02      16.55
O       4.46      16.77       7.36
O       0.84      14.42       7.36
O       6.41       6.37      16.55
O       6.41       6.37      19.31
O       0.84      14.42       4.60
O       2.07      16.93       7.35
O       5.18       3.87      16.56
O       5.18       3.87      19.30
O       2.07      16.93       4.61
O       5.69      14.27       4.61
O       1.55       6.53      19.30
O       1.55       6.53      16.56
O       5.69      14.27       7.35
O       3.25      14.77       5.98
O       4.00       6.02      17.93
O       6.88      16.42       5.98
O       0.37       4.38      17.93
O       1.91      12.89      13.71
O       1.35      11.38      15.31
O       5.33       7.91      10.20
O       5.91       9.41       8.60
O       5.33       7.91       1.75
O       5.90       9.41       3.35
O       1.91      12.89      22.15
O       1.34      11.38      20.55
O       5.54      18.30      22.15
O       4.96      19.80      20.55
O       1.71       2.49       1.75
O       2.29       0.99       3.36
O       1.71       2.49      10.20
O       2.28       0.99       8.60
O       5.54      18.30      13.71
O       4.97      19.81      15.31
