40

Co      -2.29       1.44      16.39
N      -0.11       1.37      16.43
N      -4.41       1.44      16.31
Co      -3.43      -1.44      18.99
N      -5.60      -1.37      18.95
N      -1.31      -1.44      19.07
H       2.49       2.69      18.11
H      -0.00       2.63      18.05
H      -0.03       0.10      14.80
O      -2.28       1.96      18.32
H       2.45       0.07      14.66
H      -4.51       2.97      17.69
H      -4.52      -0.07      14.90
O      -3.49       0.47      19.52
H      -6.98       3.02      17.79
O      -3.56      -3.50      19.58
O      -3.54      -1.94      21.16
O      -3.43      -1.96      17.06
O      -2.22      -0.47      15.86
H      -6.98      -0.20      14.90
O      -2.15       3.50      15.80
O      -2.17       1.94      14.22
C      -2.95       1.62      19.36
C       2.72       1.38      16.39
C       1.99       2.10      17.34
C       0.60       2.08      17.33
C       0.57       0.66      15.51
C       1.97       0.65      15.45
C      -7.24       1.40      16.36
C      -6.49       2.30      17.14
C      -5.10       2.29      17.09
C      -5.11       0.59      15.54
C      -6.50       0.53      15.54
C      -3.61      -3.17      20.81
C      -2.76      -1.62      16.02
C      -6.31      -2.08      18.05
C      -6.29      -0.66      19.87
C      -0.61      -2.29      18.29
C      -0.61      -0.59      19.84
C      -2.10       3.17      14.56
