840

H      22.96      36.69      42.31
H      24.52      37.82      40.86
H      25.96      39.44      39.48
H       0.62      41.28      38.38
H      24.10      43.92      39.92
H      20.94      40.36      42.98
H      21.18      41.43      38.96
H      18.28      44.40      39.84
H      19.44       0.18      41.87
H      24.68      42.07      43.40
H      21.01       0.48      43.82
H      22.74       0.45      45.47
H      16.72      30.73      41.19
H      15.05      29.39      40.08
H      13.51      27.59      39.13
H      12.43      25.60      38.34
H      15.40      23.22      40.19
H      18.64      27.22      42.56
H      18.25      25.73      38.79
H      21.37      23.08      39.90
H      20.30      22.68      42.01
H      14.88      25.31      43.39
H      18.79      22.46      44.01
H      17.07      22.48      45.67
H       9.73       8.09      30.61
H      11.30       6.97      32.05
H      12.74       5.35      33.43
H      13.82       3.50      34.53
H      10.89       0.86      32.98
H       7.72       4.42      29.93
H       7.96       3.35      33.94
H       5.07       0.38      33.06
H       6.23      44.60      31.03
H      11.46       2.72      29.50
H       7.80      44.30      29.08
H       9.54      44.33      27.43
H       3.51      14.05      31.71
H       1.84      15.39      32.82
H       0.30      17.20      33.77
H      25.63      19.18      34.57
H       2.19      21.57      32.73
H       5.43      17.57      30.35
H       5.03      19.05      34.12
H       8.14      21.71      33.04
H       7.08      22.12      30.92
H       1.68      19.47      29.52
H       5.58      22.33      28.92
H       3.87      22.31      27.25
H       3.63       8.05       6.24
H       2.03       6.94       7.68
H       0.57       5.34       9.05
H      25.89       3.50      10.14
H       2.52       0.88       8.82
H       5.75       4.40       5.80
H       5.39       3.47       9.83
H       8.23       0.39       9.27
H       7.18      44.54       7.20
H       2.08       2.66       5.28
H       5.73      44.20       5.16
H       4.07      44.17       3.43
H       9.52      14.06       7.21
H      11.22      15.34       8.33
H      12.80      17.12       9.32
H      13.93      19.08      10.14
H      10.85      21.52       8.55
H       7.50      17.64       6.18
H       8.07      18.95      10.00
H       5.03      21.80       9.25
H       5.98      22.27       7.09
H      11.18      19.52       5.25
H       7.33      22.50       4.99
H       8.95      22.50       3.23
H      16.86      36.74      18.09
H      15.26      37.84      16.66
H      13.79      39.43      15.29
H      12.68      41.27      14.20
H      15.73      43.90      15.51
H      18.98      40.39      18.53
H      18.60      41.31      14.50
H      21.43      44.41      15.05
H      20.38       0.27      17.12
H      15.29      42.13      19.05
H      18.93       0.61      19.16
H      17.26       0.64      20.88
H      22.73      30.72      17.12
H      24.43      29.44      15.99
H      26.01      27.67      14.99
H       0.72      25.71      14.17
H      24.06      23.26      15.76
H      20.72      27.14      18.15
H      21.28      25.84      14.33
H      18.23      23.00      15.10
H      19.19      22.53      17.25
H      24.41      25.26      19.05
H      20.55      22.29      19.33
H      22.18      22.28      21.09
H       3.11       0.89      39.03
H       4.46       2.28      37.62
H       1.79       0.97      31.46
H       0.30       0.05      31.49
H       3.16      43.66      31.45
H       2.03      43.70      30.08
H       1.68      42.67      31.48
H      26.13      42.04      34.13
H      25.93      42.91      32.62
H      24.32      44.49      33.71
H      24.46      43.56      35.22
H      23.78      42.80      33.77
H       4.01       2.72      34.12
H       1.80      43.40      38.86
H       9.88      21.30      39.25
H       8.51      19.99      37.78
H      11.39      21.33      31.71
H      12.90      22.23      31.79
H      10.06      23.43      31.73
H      11.21      23.41      30.39
H      11.54      24.39      31.83
H      13.54      24.88      34.55
H      13.69      24.10      33.00
H      15.24      22.39      33.98
H      15.14      23.23      35.55
H      15.85      24.05      34.15
H       9.07      19.55      34.31
H      11.26      23.57      39.09
H      16.32      43.89      33.87
H      17.67      42.51      35.29
H      14.99      43.81      41.44
H      13.50      44.74      41.41
H      16.36       1.12      41.45
H      15.23       1.08      42.82
H      14.88       2.11      41.42
H      12.90       2.73      38.76
H      12.71       1.88      40.28
H      11.10       0.28      39.21
H      11.23       1.20      37.69
H      10.55       1.97      39.14
H      17.22      42.07      38.78
H      15.00       1.38      34.05
H      23.09      23.50      33.66
H      21.73      24.81      35.14
H      24.59      23.43      41.21
H      26.10      22.53      41.12
H      23.26      21.34      41.18
H      24.41      21.35      42.52
H      24.74      20.37      41.09
H       0.30      19.88      38.36
H       0.47      20.67      39.92
H       2.03      22.36      38.92
H       1.91      21.52      37.35
H       2.63      20.70      38.76
H      22.29      25.23      38.61
H      24.46      21.22      33.83
H      23.50      43.88       9.38
H      22.12      42.41      10.68
H      24.50      43.52      16.99
H      25.98      44.46      17.06
H      23.12       0.82      17.02
H      24.18       0.73      18.43
H      24.58       1.82      17.09
H       0.16       2.61      14.58
H       0.36       1.66      16.04
H       2.06       0.22      14.89
H       1.92       1.23      13.44
H       2.53       1.92      14.95
H      22.44      41.82      14.15
H      24.77       1.36       9.67
H      16.40      23.39       9.15
H      17.79      24.81      10.50
H      15.18      23.74      16.74
H      13.67      22.86      16.76
H      16.50      21.64      16.76
H      15.40      21.74      18.15
H      15.00      20.68      16.79
H      13.02      20.00      14.21
H      12.83      20.92      15.69
H      11.21      22.47      14.55
H      11.34      21.48      13.08
H      10.67      20.78      14.56
H      17.36      25.43      13.95
H      15.05      21.15       9.45
H      10.28       0.89      14.96
H       8.91       2.37      13.65
H      11.31       1.26       7.35
H      12.79       0.33       7.28
H       9.92      43.97       7.31
H      10.99      44.06       5.90
H      11.38      42.97       7.24
H      13.37      42.17       9.76
H      13.58      43.12       8.30
H      15.28      44.56       9.45
H      15.13      43.54      10.90
H      15.75      42.85       9.39
H       9.23       2.96      10.18
H      11.55      43.41      14.67
H       3.20      21.40      15.17
H       4.60      19.99      13.82
H       1.99      21.02       7.59
H       0.47      21.91       7.56
H       3.30      23.14       7.55
H       2.20      23.02       6.16
H       1.80      24.09       7.52
H      26.24      24.77      10.09
H      26.05      23.84       8.62
H      24.43      22.31       9.77
H      24.56      23.30      11.24
H      23.89      24.00       9.75
H       4.16      19.35      10.38
H       1.85      23.64      14.86
H      25.42       0.53       2.09
H      24.33       0.60      48.55
H       2.93      43.09      44.43
H       4.40      42.60      45.27
H       5.14       0.28      45.29
H       3.65       0.70      44.42
H       4.86      44.43      43.65
H       5.47      43.95       0.16
H       5.68      43.45      47.09
H       4.67      41.64       0.76
H       6.28      41.61       0.02
H       4.87      41.15      47.66
H      24.94       0.85      46.02
H       1.88      43.77       2.84
H      14.12      21.71       2.06
H      15.32      21.90      48.58
H      10.42      24.19      44.37
H       8.97      24.73      45.19
H       8.08      22.34      45.10
H       9.58      21.86      44.27
H       8.45      22.99      43.50
H       7.66      22.79      48.26
H       7.59      23.90      46.90
H       8.27      24.68       1.18
H       6.77      25.02       0.31
H       8.28      25.79      48.39
H      14.88      21.84      46.04
H      11.13      23.10       2.74
H      12.17      44.30      22.21
H      11.10      44.23      24.36
H      16.19       1.64      28.45
H      17.66       2.09      27.61
H      18.35      44.41      27.56
H      16.86      44.01      28.44
H      18.10       0.25      29.21
H      18.67       0.78      24.09
H      18.91       1.23      25.76
H      17.91       3.12      23.56
H      19.53       3.10      24.28
H      18.13       3.57      25.26
H      11.74      43.94      26.89
H      15.06       1.04      21.45
H       0.95      23.04      22.25
H       2.14      22.85      24.33
H      23.61      20.63      28.53
H      22.16      20.10      27.70
H      21.30      22.50      27.78
H      22.79      22.97      28.62
H      21.65      21.86      29.39
H      20.89      22.04      24.62
H      20.79      20.94      25.98
H      21.49      20.13      23.12
H      19.98      19.81      23.98
H      21.47      19.03      24.51
H       1.67      22.95      26.87
H      24.37      21.68      21.55
H      20.61      32.63      43.33
H      21.05      34.88      42.61
H      18.35      34.51      36.14
H      18.47      32.91      35.45
H      20.97      33.10      35.37
H      20.84      34.76      35.99
H      20.14      34.35      34.42
H      18.53      29.71      37.53
H      18.84      30.67      36.10
H      16.29      30.74      37.83
H      16.45      29.97      36.24
H      16.54      31.73      36.38
H      20.54      36.25      39.38
H      18.78      30.89      42.53
H       7.39      12.15      29.58
H       7.83       9.90      30.30
H       5.13      10.29      36.77
H       5.25      11.89      37.46
H       7.75      11.69      37.54
H       7.62      10.03      36.92
H       6.92      10.45      38.49
H       5.33      15.09      35.38
H       5.63      14.13      36.81
H       3.08      14.07      35.08
H       3.25      14.84      36.67
H       3.32      13.07      36.53
H       7.31       8.53      33.53
H       5.57      13.90      30.37
H       5.76      12.06       5.21
H       5.50       9.80       5.96
H       8.23      10.50      12.40
H       7.98      12.10      13.06
H       5.51      11.71      13.14
H       5.77      10.05      12.55
H       6.43      10.55      14.12
H       7.75      15.24      10.90
H       7.49      14.31      12.36
H      10.04      14.30      10.64
H       9.84      15.12      12.20
H       9.84      13.35      12.12
H       6.15       8.54       9.22
H       7.40      13.99       5.89
H      18.99      32.73      19.13
H      18.75      34.99      18.37
H      21.45      34.27      11.93
H      21.19      32.66      11.27
H      18.72      33.07      11.20
H      18.99      34.73      11.78
H      19.64      34.22      10.21
H      20.95      29.53      13.43
H      20.68      30.46      11.98
H      23.25      30.46      13.68
H      23.03      29.64      12.12
H      23.04      31.41      12.20
H      19.39      36.24      15.11
H      20.62      30.79      18.45
C      22.88      42.76      42.55
C      21.83      43.67      42.67
C      20.96      43.49      41.60
C      21.46      42.48      40.78
C      20.79      42.15      39.58
C      19.60      42.83      39.24
C      19.11      43.85      40.09
C      19.79      44.19      41.28
C      21.78      44.59      43.73
C      22.82      44.58      44.68
C      23.91      43.67      44.58
C      23.91      42.74      43.51
C      22.60      40.46      41.68
C      23.63      39.73      41.07
C      24.41      40.61      40.33
C      23.88      41.90      40.45
C      25.57      40.38      39.57
C      26.20      41.47      38.94
C      25.68      42.78      39.06
C      24.50      42.99      39.81
C      21.68      39.81      42.53
C      21.80      38.42      42.76
C      22.85      37.70      42.14
C      23.76      38.35      41.29
C      22.70      41.90      41.35
C      26.31      43.87      38.39
C      20.96      37.82      43.55
C      18.97      42.63      37.99
C      24.94      43.65      45.56
C      16.74      24.72      42.58
C      17.85      23.88      42.75
C      18.66      23.98      41.63
C      18.07      24.86      40.71
C      18.69      25.09      39.46
C      19.92      24.47      39.16
C      20.50      23.58      40.11
C      19.88      23.33      41.35
C      17.98      23.07      43.88
C      16.95      23.07      44.84
C      15.79      23.87      44.67
C      15.71      24.73      43.54
C      16.90      26.91      41.41
C      15.88      27.54      40.70
C      15.08      26.55      40.13
C      15.62      25.30      40.43
C      13.90      26.67      39.36
C      13.27      25.50      38.92
C      13.79      24.21      39.21
C      15.00      24.13      39.96
C      17.88      27.69      42.07
C      17.83      29.11      42.00
C      16.78      29.72      41.26
C      15.80      28.94      40.62
C      16.83      25.44      41.28
C      13.17      23.05      38.69
C      18.83      29.90      42.63
C      20.53      24.61      37.89
C      14.73      23.81      45.63
C       9.66       2.03      30.35
C       8.62       1.11      30.23
C       7.75       1.29      31.30
C       8.25       2.30      32.12
C       7.58       2.63      33.32
C       6.39       1.94      33.66
C       5.90       0.93      32.81
C       6.57       0.59      31.62
C       8.57       0.20      29.17
C       9.61       0.21      28.22
C      10.70       1.11      28.32
C      10.70       2.05      29.39
C       9.38       4.32      31.22
C      10.41       5.05      31.83
C      11.19       4.17      32.58
C      10.66       2.88      32.45
C      12.35       4.41      33.33
C      12.98       3.32      33.96
C      12.46       2.00      33.84
C      11.28       1.79      33.09
C       8.46       4.97      30.38
C       8.58       6.36      30.15
C       9.62       7.09      30.77
C      10.54       6.44      31.62
C       9.49       2.88      31.55
C      13.09       0.91      34.51
C       7.73       6.97      29.37
C       5.75       2.15      34.91
C      11.73       1.14      27.34
C       3.53      20.07      30.34
C       4.63      20.91      30.18
C       5.45      20.81      31.30
C       4.86      19.93      32.21
C       5.47      19.69      33.46
C       6.70      20.32      33.76
C       7.28      21.21      32.82
C       6.66      21.46      31.58
C       4.77      21.72      29.04
C       3.75      21.72      28.08
C       2.58      20.92      28.24
C       2.50      20.06      29.37
C       3.69      17.87      31.50
C       2.66      17.25      32.22
C       1.86      18.23      32.79
C       2.41      19.49      32.49
C       0.69      18.11      33.55
C       0.05      19.28      34.00
C       0.58      20.57      33.70
C       1.78      20.66      32.96
C       4.67      17.10      30.84
C       4.62      15.68      30.91
C       3.57      15.07      31.65
C       2.58      15.85      32.29
C       3.61      19.35      31.64
C      26.37      21.73      34.22
C       5.62      14.89      30.28
C       7.31      20.17      35.03
C       1.53      20.97      27.28
C       3.83       1.99       6.24
C       4.87       1.06       6.21
C       5.68       1.27       7.31
C       5.17       2.34       8.06
C       5.78       2.71       9.27
C       6.94       2.02       9.71
C       7.44       0.94       8.94
C       6.82       0.56       7.74
C       4.96       0.10       5.19
C       3.97       0.08       4.19
C       2.89       1.00       4.20
C       2.84       1.98       5.23
C       4.05       4.32       7.04
C       2.98       5.05       7.58
C       2.18       4.18       8.32
C       2.74       2.90       8.26
C       0.98       4.41       9.01
C       0.33       3.32       9.63
C       0.88       2.01       9.58
C       2.11       1.81       8.90
C       4.99       4.95       6.20
C       4.85       6.33       5.91
C       3.76       7.05       6.46
C       2.82       6.42       7.30
C       3.95       2.89       7.41
C       0.24       0.93      10.23
C       5.70       6.92       5.12
C       7.53       2.29      10.97
C       1.90       0.99       3.18
C       9.40      20.13       6.20
C       8.31      21.00       6.13
C       7.56      20.87       7.29
C       8.17      19.92       8.12
C       7.62      19.63       9.39
C       6.44      20.30       9.80
C       5.85      21.27       8.95
C       6.40      21.56       7.69
C       8.13      21.86       5.04
C       9.10      21.87       4.02
C      10.25      21.04       4.09
C      10.37      20.13       5.17
C       9.28      17.88       7.28
C      10.35      17.23       7.90
C      11.18      18.19       8.47
C      10.62      19.45       8.25
C      12.40      18.05       9.16
C      13.06      19.20       9.62
C      12.51      20.50       9.40
C      11.27      20.61       8.73
C       8.28      17.14       6.61
C       8.35      15.73       6.58
C       9.44      15.08       7.22
C      10.44      15.82       7.88
C       9.37      19.35       7.47
C      13.16      21.65       9.92
C       7.35      14.98       5.90
C       5.88      20.09      11.08
C      11.25      21.11       3.08
C      17.05      42.80      18.09
C      18.08      43.73      18.12
C      18.89      43.52      17.01
C      18.38      42.45      16.27
C      19.00      42.07      15.06
C      20.14      42.77      14.62
C      20.64      43.86      15.38
C      20.02      44.24      16.59
C      18.16      44.70      19.13
C      17.17      44.72      20.13
C      16.09      43.79      20.12
C      16.06      42.81      19.10
C      17.27      40.47      17.29
C      16.20      39.74      16.76
C      15.40      40.60      16.02
C      15.96      41.88      16.08
C      14.19      40.37      15.33
C      13.55      41.45      14.71
C      14.09      42.76      14.76
C      15.32      42.97      15.44
C      18.21      39.84      18.13
C      18.07      38.46      18.42
C      16.99      37.73      17.87
C      16.05      38.36      17.04
C      17.17      41.90      16.92
C      13.44      43.85      14.11
C      18.93      37.88      19.20
C      20.73      42.49      13.36
C      15.10      43.81      21.13
C      22.62      24.66      18.12
C      21.53      23.79      18.19
C      20.78      23.92      17.04
C      21.39      24.86      16.20
C      20.83      25.15      14.94
C      19.64      24.49      14.53
C      19.05      23.53      15.39
C      19.61      23.24      16.65
C      21.36      22.92      19.28
C      22.33      22.91      20.30
C      23.48      23.74      20.22
C      23.59      24.65      19.14
C      22.50      26.90      17.04
C      23.57      27.56      16.42
C      24.39      26.60      15.84
C      23.83      25.34      16.06
C      25.61      26.74      15.15
C      26.27      25.59      14.69
C      25.72      24.29      14.91
C      24.48      24.18      15.58
C      21.50      27.64      17.71
C      21.57      29.06      17.75
C      22.65      29.70      17.10
C      23.66      28.96      16.44
C      22.59      25.43      16.85
C      26.37      23.14      14.39
C      20.57      29.80      18.43
C      19.08      24.70      13.25
C      24.48      23.67      21.23
C       1.91       0.09      37.48
C       1.72       0.08      36.08
C       2.53       0.89      35.24
C       3.56       1.69      35.79
C       3.73       1.71      37.19
C       2.93       0.90      38.02
C       1.40       0.00      33.30
C       0.59      43.96      34.15
C       1.34       0.04      31.82
C       2.10      43.63      31.17
C      25.94      43.03      33.70
C      24.53      43.50      34.13
C      11.16      22.08      37.76
C      11.38      22.10      36.36
C      10.56      21.35      35.48
C       9.49      20.57      35.98
C       9.28      20.54      37.38
C      10.09      21.30      38.25
C      11.76      22.24      33.59
C      12.58      23.01      34.47
C      11.85      22.25      32.11
C      11.12      23.45      31.48
C      13.68      23.91      34.07
C      15.07      23.36      34.47
C      15.11      44.70      35.42
C      14.92      44.70      36.82
C      15.73      43.90      37.66
C      16.77      43.09      37.12
C      16.94      43.09      35.71
C      16.14      43.89      34.88
C      14.60       0.01      39.60
C      13.79       0.82      38.75
C      14.54      44.74      41.08
C      15.30       1.15      41.73
C      12.71       1.75      39.20
C      11.31       1.26      38.78
C      24.36      22.71      35.16
C      24.59      22.67      36.56
C      23.77      23.43      37.43
C      22.70      24.22      36.93
C      22.49      24.25      35.54
C      23.30      23.49      34.67
C      24.96      22.52      39.33
C      25.78      21.76      38.45
C      25.05      22.52      40.81
C      24.32      21.31      41.44
C       0.46      20.85      38.84
C       1.85      21.39      38.44
C      24.62      44.65      11.00
C      24.75      44.59      12.41
C      23.94      43.73      13.18
C      22.94      42.93      12.56
C      22.83      42.98      11.15
C      23.64      43.84      10.39
C      24.96      44.56      15.20
C      25.78       0.66      14.43
C      24.96      44.47      16.68
C      24.16       0.85      17.34
C       0.38       1.61      14.95
C       1.82       1.22      14.53
C      15.19      22.68      10.73
C      15.01      22.73      12.14
C      15.84      23.55      12.94
C      16.88      24.32      12.36
C      17.05      24.27      10.95
C      16.23      23.44      10.16
C      14.73      22.74      14.92
C      13.90      21.91      14.12
C      14.70      22.82      16.40
C      15.45      21.64      17.07
C      12.83      21.00      14.60
C      11.42      21.47      14.17
C      11.40       0.13      13.33
C      11.55       0.18      11.92
C      10.73       1.05      11.15
C       9.74       1.85      11.77
C       9.62       1.80      13.18
C      10.42       0.94      13.94
C      11.76       0.22       9.14
C      12.58      44.12       9.91
C      11.76       0.32       7.65
C      10.96      43.94       6.99
C      13.60      43.17       9.38
C      15.03      43.56       9.81
C       1.99      22.11      13.58
C       1.81      22.05      12.18
C       2.64      21.23      11.38
C       3.68      20.46      11.97
C       3.85      20.52      13.37
C       3.03      21.35      14.16
C       1.53      22.03       9.40
C       0.70      22.86      10.20
C       1.50      21.95       7.91
C       2.25      23.13       7.25
C      26.05      23.77       9.71
C      24.64      23.31      10.15
C       0.87      44.63       1.36
C       1.58      44.27       0.18
C       0.94      44.32      47.52
C      26.00      44.70      47.43
C      25.31       0.31       0.00
C      25.94       0.27       1.25
C       3.01      43.69      46.46
C       3.64      43.64      47.73
C       3.67      43.42      45.16
C       4.38      44.67      44.60
C       5.07      43.29      47.98
C       5.23      41.83      48.43
C      12.26      22.35       1.29
C      11.60      22.79       0.11
C      12.30      22.91      47.49
C      13.68      22.61      47.43
C      14.33      22.14       0.01
C      13.63      22.02       1.22
C      10.26      23.54      46.38
C       9.56      23.44      47.62
C       9.64      23.88      45.08
C       8.89      22.69      44.45
C       8.11      23.69      47.84
C       7.85      24.88       0.19
C      14.05       0.18      22.94
C      14.78       0.51      24.11
C      14.15       0.46      25.37
C      12.79       0.09      25.48
C      12.08      44.51      24.30
C      12.70      44.56      23.05
C      16.23       1.05      26.42
C      16.86       1.10      25.15
C      16.92       1.30      27.71
C      17.60       0.02      28.26
C      18.29       1.43      24.89
C      18.47       2.90      24.47
C      25.49      22.42      23.01
C      24.83      22.00      24.19
C      25.52      21.88      25.41
C       0.49      22.17      25.47
C       1.14      22.62      24.30
C       0.45      22.74      23.08
C      23.47      21.27      26.51
C      22.77      21.37      25.27
C      22.84      20.94      27.82
C      22.10      22.15      28.44
C      21.32      21.14      25.05
C      21.05      19.95      24.10
C      19.86      31.96      41.46
C      19.62      32.34      40.13
C      19.89      33.66      39.70
C      20.41      34.61      40.61
C      20.66      34.22      41.94
C      20.41      32.90      42.36
C      19.15      33.10      37.48
C      18.88      31.77      37.91
C      18.98      33.62      36.10
C      20.32      33.98      35.43
C      18.33      30.68      37.06
C      16.80      30.79      36.86
C       6.64      12.83      31.44
C       6.40      12.45      32.78
C       6.67      11.13      33.21
C       7.18      10.17      32.30
C       7.44      10.57      30.97
C       7.18      11.88      30.55
C       5.94      11.70      35.43
C       5.66      13.03      35.00
C       5.76      11.18      36.81
C       7.10      10.81      37.48
C       5.12      14.12      35.84
C       3.59      14.01      36.05
C       6.50      12.83       7.04
C       6.78      12.49       8.38
C       6.62      11.16       8.83
C       6.16      10.16       7.95
C       5.86      10.50       6.62
C       6.01      11.83       6.17
C       7.32      11.82      11.04
C       7.51      13.16      10.57
C       7.54      11.34      12.43
C       6.22      10.88      13.10
C       8.00      14.29      11.40
C       9.53      14.26      11.60
C      19.73      31.95      17.30
C      20.01      32.29      15.96
C      19.84      33.62      15.50
C      19.39      34.63      16.38
C      19.09      34.28      17.72
C      19.24      32.96      18.17
C      20.54      32.95      13.29
C      20.72      31.61      13.76
C      20.75      33.43      11.90
C      19.43      33.89      11.23
C      21.20      30.47      12.94
C      22.73      30.50      12.72
N       2.32       0.80      33.90
N       0.80      44.04      35.49
N       4.41       2.38      34.95
N       1.24      43.98      38.30
N      10.80      21.46      34.15
N      12.34      22.89      35.80
N       8.65      19.92      35.11
N      11.81      22.93      38.60
N      15.53      43.99      39.00
N      14.00       0.73      37.41
N      17.62      42.42      37.96
N      14.45       0.81      34.60
N      24.00      23.31      38.77
N      25.54      21.88      37.11
N      21.86      24.87      37.81
N      25.02      21.85      34.32
N      24.09      43.77      14.53
N      25.62       0.63      13.08
N      22.07      42.20      13.33
N      25.30       0.80      10.25
N      15.65      23.51      14.28
N      14.10      21.95      12.77
N      17.75      25.02      13.16
N      14.51      21.77       9.97
N      10.88       1.01       9.81
N      12.41      44.14      11.26
N       8.86       2.58      11.00
N      12.09      43.98      14.08
N       2.46      21.26      10.04
N       0.90      22.83      11.54
N       4.56      19.77      11.17
N       1.31      23.02      14.35
N       1.69      44.02      46.42
N       2.89      43.94       0.22
N      25.34      44.76      46.24
N       1.50      44.62       2.56
N      11.59      23.27      46.39
N      10.27      23.06       0.11
N      14.40      22.66      46.28
N      11.58      22.28       2.46
N      14.91       0.73      26.47
N      16.09       0.82      24.06
N      12.14       0.03      26.67
N      14.67       0.19      21.73
N      24.81      21.53      26.51
N      23.50      21.74      24.18
N       1.20      22.13      26.63
N      24.82      22.49      21.83
N      19.64      33.97      38.40
N      19.13      31.46      39.21
N      20.68      35.89      40.27
N      19.64      30.62      41.86
N       6.42      10.82      34.51
N       5.92      13.33      33.69
N       7.45       8.90      32.64
N       6.43      14.17      31.05
N       6.89      10.90      10.14
N       7.22      13.42       9.27
N       5.98       8.87       8.32
N       6.55      14.17       6.60
N      20.11      33.87      14.20
N      20.43      31.36      15.07
N      19.21      35.91      16.01
N      19.77      30.61      17.74
O      20.21      37.28      44.24
O      25.52       0.04      37.82
O      19.60      43.22      36.95
O      25.44      42.44      45.91
O      19.36      29.43      43.78
O      13.96      22.08      38.19
O      19.87      23.98      36.88
O      14.12      24.97      45.96
O       6.99       7.51      28.67
O      12.30      44.74      35.07
O       6.38       1.55      35.95
O      12.24       2.35      27.00
O       6.15      15.36      29.13
O       0.75      22.70      34.73
O       6.66      20.82      36.03
O       0.92      19.81      26.95
O       6.46       7.44       4.43
O       1.01      44.75      10.81
O       6.93       1.64      11.99
O       1.42       2.19       2.77
O       6.79      15.55       4.80
O      12.38      22.63      10.44
O       6.48      20.82      12.05
O      11.83      19.95       2.69
O      19.69      37.36      19.90
O      14.22       0.03      13.52
O      20.15      43.17      12.34
O      14.62      42.61      21.55
O      20.02      29.23      19.53
O      25.60      22.15      13.87
O      19.68      23.99      12.27
O      25.07      24.83      21.62
