28

Zn       9.69       3.35       5.78
Zn      10.22      -3.33       5.78
Zn       9.96       0.03       6.83
Zn       9.96       6.66       4.72
C       8.07       5.73       6.80
C      11.83       7.63       6.79
C      11.83      -0.94       4.76
C       8.07       0.96       4.75
O      10.47       2.24       7.25
O       8.99       1.10       8.45
O       9.46      -2.22       7.24
O      10.84      -1.02       8.51
O       9.46       8.91       4.31
O      10.84       7.71       3.04
O      10.47       4.45       4.30
O       8.99       5.59       3.10
O       8.57       4.55       6.85
O       8.44       6.68       6.02
C       9.71       2.12       8.33
O      11.47       6.69       6.02
O      11.34       8.82       6.84
O      11.34      -2.12       4.71
O      11.47       0.01       5.53
O       8.57       2.14       4.70
O       8.44       0.02       5.53
C      10.17      -2.07       8.34
C      10.17       8.76       3.21
C       9.71       4.57       3.22
