276

Ni       5.69       9.89      11.00
Ni       4.26       7.79      13.44
Ni       7.43       6.91      12.37
Ni       1.76       0.90       5.36
Ni       3.76       3.34       2.76
Ni       0.38       4.01       4.21
H       7.00       2.54       4.34
H       9.21       1.40       4.67
H       7.55      -0.78       7.98
H       5.34       0.23       7.55
H       8.80      -2.23       7.45
H       7.85      13.39       7.86
H       7.77      11.38       9.30
H       0.75       8.07       3.82
H       0.98      10.41       2.94
H       5.13       9.64       2.13
H       4.86       7.31       2.89
H       4.95      11.03       0.69
H      -0.43       8.60      15.42
H       1.64       9.11      14.14
H      -0.01       0.83       8.94
H      -1.73       0.61      10.76
H      -3.18       4.54       9.79
H      -1.53       4.71       7.96
H      -4.98       3.83      10.46
H      10.16       2.81      13.74
H       8.26       4.42      13.75
H      -2.08      -1.92      15.67
H      -2.31      -0.19      13.86
H      -6.46       0.24      14.88
H      -0.78       5.43       0.34
H      -6.29       2.09      14.17
H      -6.20       5.43      10.91
H      10.08       6.85      10.96
H      -1.29      15.36       3.98
H       0.41      13.60       3.47
H       1.98      16.10       0.33
H       5.49       0.15       0.93
H       3.72      15.14       0.66
H       6.84      11.68       0.19
H       3.35       5.50      15.14
H      14.82       2.60       4.40
H      12.63       1.74       5.25
H      14.40      -2.15       5.75
H      -1.74      -1.26       5.00
H      13.10      -2.32       7.30
H       8.91      -3.50       9.06
H       3.85      12.11      10.37
H       0.47       8.52      12.16
H      -1.75       9.62      11.72
H       0.01      11.69       8.38
H       2.20      10.66       8.89
H      -1.34      13.14       8.82
H      -0.37      -2.54       8.41
H      -0.25      -0.50       6.97
H       7.09       2.94      12.30
H       6.89       0.61      13.25
H       2.75       1.38      14.13
H       2.99       3.69      13.30
H       2.99       0.04      15.59
H       8.45       2.52       0.99
H       6.37       2.00       2.25
H       7.85      10.11       7.48
H       9.56      10.28       5.66
H      11.13       6.46       6.84
H       9.50       6.35       8.69
H      12.87       7.11       6.04
H      -2.34       8.05       2.69
H      -0.41       6.47       2.72
H       9.88      12.72       0.71
H      10.10      11.02       2.54
H      14.28      10.64       1.62
H       8.61       5.42      16.13
H      14.07       8.74       2.25
H      14.07       5.48       5.60
H      -2.18       4.11       5.60
H       9.19      -4.36      12.31
H       7.49      -2.58      12.79
H       6.09      -4.91      16.13
H       2.58      11.02      15.57
H       4.29      -4.06      15.73
H       1.12      -0.62      16.09
H       4.61       5.57       1.15
H      -7.05       8.37      12.37
H      -4.97       9.20      11.24
H      -6.98      12.90      10.36
H       9.29      12.07      11.44
H      -5.63      13.10       8.87
H      -1.49      14.23       7.09
H       3.63      -1.33       5.84
H       7.16      10.10      13.15
H       5.43       7.57      11.38
H       2.00       2.11       3.43
H       2.98       2.85       4.65
C       4.61       1.86       5.61
C       6.01       1.41       5.89
C       7.12       1.78       5.11
C       8.36       1.16       5.30
C       8.53       0.18       6.30
C       7.43      -0.10       7.14
C       6.19       0.48       6.92
C       9.80      -0.58       6.48
C       9.76      -1.80       7.17
C       6.95      13.18       8.42
C       6.91      12.04       9.21
C       2.60       6.06       3.69
C       2.78       7.52       3.35
C       1.70       8.42       3.41
C       1.83       9.72       2.93
C       3.05      10.18       2.41
C       4.15       9.30       2.44
C       4.01       7.99       2.89
C       3.20      11.54       1.84
C       4.29      11.83       1.00
C       0.39       7.89      15.42
C       1.53       8.18      14.68
C       0.21       2.80       7.09
C      -0.70       2.76       8.30
C      -0.73       1.62       9.13
C      -1.68       1.50      10.14
C      -2.62       2.52      10.37
C      -2.52       3.70       9.59
C      -1.58       3.81       8.57
C      -3.69       2.35      11.38
C      -4.84       3.16      11.31
C      10.21       3.71      13.12
C       9.13       4.58      13.12
C       1.50       4.22       1.17
C      -4.10      -1.71      16.35
C      -3.03      -1.41      15.50
C      -3.15      -0.46      14.49
C      -4.38       0.19      14.28
C      -5.48      -0.19      15.07
C      -5.34      -1.11      16.11
C      -4.51       1.27      13.26
C      -5.61       2.14      13.32
C      11.29       5.14      11.54
C      10.16       5.95      11.58
C       3.70       0.19       2.95
C       4.60      -0.95       2.54
C      -0.54      15.53       3.21
C       0.40      14.54       2.92
C       1.37      14.74       1.92
C       1.31      15.94       1.18
C       0.39      16.94       1.49
C       2.42      13.73       1.64
C       3.57      14.10       0.92
C       1.41       5.82      16.04
C       2.50       6.16      15.26
C      -1.09       1.30       4.39
C      15.86       0.74       4.70
C      14.72       1.57       4.72
C      13.50       1.09       5.19
C      13.36      -0.24       5.62
C      14.49      -1.09       5.50
C      15.72      -0.60       5.06
C      12.10      -0.75       6.21
C      12.14      -1.90       7.03
C       4.69      13.62       9.06
C       4.72      12.45       9.82
C       2.83       9.07      10.98
C       1.47       9.57      10.58
C       0.35       9.24      11.35
C      -0.88       9.84      11.10
C      -1.02      10.77      10.06
C       0.10      11.04       9.24
C       1.33      10.45       9.51
C      -2.30      11.48       9.82
C      -2.29      12.68       9.08
C       0.53      -2.34       7.83
C       0.58      -1.19       7.05
C       5.25       4.94      12.48
C       5.07       3.48      12.80
C       6.15       2.59      12.73
C       6.04       1.29      13.24
C       4.83       0.85      13.81
C       3.72       1.72      13.78
C       3.84       3.01      13.29
C       4.73      -0.49      14.43
C       3.66      -0.77      15.30
C       7.62       3.22       0.96
C       6.48       2.93       1.70
C       7.73       8.24       9.47
C       8.62       8.26       8.26
C       8.60       9.34       7.36
C       9.54       9.43       6.33
C      10.51       8.43       6.16
C      10.45       7.30       7.00
C       9.53       7.22       8.04
C      11.56       8.56       5.12
C      12.71       7.75       5.18
C      -2.38       7.17       3.33
C      -1.28       6.32       3.36
C       6.34       6.57      15.23
C      11.92      12.53       0.07
C      10.83      12.23       0.90
C      10.95      11.29       1.93
C      12.18      10.66       2.17
C      13.30      11.04       1.40
C      13.16      11.95       0.35
C      12.33       9.59       3.19
C      13.42       8.71       3.12
C      -3.42       5.77       4.97
C      -2.28       4.98       4.96
C       4.25      10.89      13.47
C       8.52      -5.66      13.87
C       8.48      -4.47      13.12
C       7.54      -3.48      13.39
C       6.62      -3.64      14.45
C       6.73      -4.79      15.26
C       7.65      -5.79      14.97
C       5.55      -2.65      14.70
C       4.42      -3.02      15.44
C       6.57       5.26       0.27
C       5.48       4.92       1.06
C       8.94       9.62      12.61
C      -8.17      10.16      11.95
C      -7.02       9.35      11.90
C      -5.87       9.81      11.28
C      -5.84      11.09      10.69
C      -6.99      11.89      10.76
C      -8.15      11.44      11.38
C      -4.60      11.60      10.05
C      -4.67      12.71       9.18
C       2.76      -2.84       7.12
C       2.76      -1.66       6.40
C      10.95      -2.46       7.50
C       5.82      14.02       8.32
C       4.52      13.14       0.56
C       0.30       6.68      16.14
C      -5.81       3.09      12.31
C      11.34       3.98      12.32
C      -3.49      13.29       8.72
C       1.64      -3.20       7.88
C       3.46      -2.06      15.78
C       7.69       4.41       0.21
C      13.65       7.79       4.15
C      -3.49       6.91       4.15
N       5.81      11.67       9.90
N      10.95      -0.08       5.97
N       2.57       7.33      14.59
N       2.26      12.47       2.12
N       9.10       5.69      12.36
N      -3.55       1.40      12.32
N       1.69      -0.85       6.35
N      -3.44      10.97      10.33
N       5.42       3.77       1.76
N       5.68      -1.41      14.17
N      -1.23       5.25       4.17
N      11.39       9.49       4.16
O       4.37       2.92       4.90
O       3.69       1.13       6.08
O       1.58       5.73       4.36
O       3.52       5.29       3.21
O       0.99       1.80       6.98
O       0.07       3.78       6.30
O       2.58       3.52       1.18
O       0.62       4.29       2.07
O       2.70      -0.06       3.69
O       4.08       1.34       2.50
O      -1.04       2.48       3.95
O      -0.11       0.52       4.65
O       2.87       8.20      11.90
O       3.82       9.61      10.36
O       6.32       5.26      11.86
O       4.33       5.71      12.91
O       6.83       9.15       9.52
O       7.99       7.36      10.35
O       5.32       7.31      15.16
O       7.25       6.41      14.35
O       5.11      11.10      12.54
O       4.03       9.79      14.07
O       8.87       8.47      13.06
O       7.92      10.50      12.66
O       5.79       8.15      12.09
O       1.98       2.68       4.24
