96

Cu       0.21       3.14      13.64
Cu       2.88       3.42      13.94
H      -0.93       3.56      17.82
H       4.03       3.01       9.76
H      -1.15       3.42      20.26
H       4.24       3.14       7.33
H      -0.10       4.20       9.48
H       3.19       2.36      18.10
H       3.74       7.13       3.68
H      -0.65      -0.57      23.90
H       3.95       7.34       1.35
H      -0.87      -0.79      26.23
H       1.01       5.71      26.93
H       2.09       0.84       0.66
C       1.34       5.81      13.90
C       1.75       0.76      13.68
C       1.30       3.10      16.34
C       1.79       3.46      11.24
C       0.97       3.83      22.76
C       2.12       2.73       4.82
C       0.24       1.57      22.55
C       2.85       4.99       5.03
C       2.13       2.48      19.98
C       0.95       4.08       7.60
C       2.25       2.59      18.58
C       0.84       3.97       9.00
C      -0.07       3.26      18.41
C       3.17       3.30       9.17
C      -0.20       3.18      19.79
C       3.29       3.38       7.79
C       0.89       2.80      20.58
C       2.20       3.76       7.00
C       0.37       2.57      24.76
C       2.72       3.98       2.82
C       0.77       3.80      24.16
C       2.32       2.76       3.42
C       0.97       4.93      24.98
C       2.13       1.63       2.60
C       0.08       1.47      23.94
C       3.01       5.09       3.64
C       1.15       2.98      17.80
C       1.94       3.58       9.79
C       3.20       5.34       0.83
C      -0.11       1.21      26.75
C       2.51       2.99       0.59
C       0.58       3.57      27.00
C       2.81       4.10       1.41
C       0.28       2.45      26.17
C       3.57       6.40       1.69
C      -0.48       0.16      25.89
C       3.46       6.28       3.07
C      -0.38       0.28      24.51
C       0.88       4.80      26.37
C       2.21       1.76       1.21
C       1.12       7.19      14.18
C       1.97      -0.62      13.41
N       0.71       2.73      22.00
N       2.38       3.83       5.58
N       4.90       3.63      14.16
N      -1.80       2.94      13.42
N      -2.14       4.88      14.53
N       5.23       1.69      13.05
N       1.18       6.24      24.44
N       1.91       0.32       3.14
N      -0.18       4.53       6.84
N       3.27       2.02      20.74
N       3.37      -0.76      15.43
N      -0.28       7.33      12.15
O       0.28       5.10      13.69
O       2.81       1.46      13.89
O       2.54       5.33      13.95
O       0.55       1.23      13.64
O       0.23       3.03      15.59
O       2.86       3.53      11.99
O       2.49       3.26      15.84
O       0.60       3.30      11.74
O       1.47       4.93      22.16
O       1.62       1.63       5.42
O       3.13       6.04       5.82
O      -0.05       0.52      21.76
O      -2.35       5.89      13.74
O      -1.86       5.10      15.78
O       5.44       0.68      13.84
O       4.95       1.46      11.80
O       3.87      -1.48      24.93
O       0.28       6.78      23.67
O      -0.78       8.03       2.65
O       2.81      -0.22       3.91
O      -0.24       4.38       5.54
O      -1.20       5.09       7.43
O       4.30       1.49      20.14
O       3.31       2.14      22.04
O       2.76       7.29      15.90
O       2.58      -0.09      16.22
O       0.33      -0.72      11.68
O       0.51       6.65      11.36
