16

N      -2.86      15.73       9.02
N      -2.73      14.71       8.16
N      -3.77      14.66       7.33
H      -7.44      17.49       7.35
C      -5.87      16.07       7.12
C      -6.65      19.02       9.41
H      -4.24      17.94      10.23
C      -4.62      15.68       7.66
C      -4.04      16.36       8.75
C      -4.68      17.46       9.36
C      -5.90      17.86       8.83
C      -6.47      17.16       7.72
H      -6.33      15.52       6.31
H      -6.13      19.44      10.28
H      -6.77      19.83       8.67
H      -7.66      18.72       9.72
