69

C       2.48      -2.00      18.39
C       3.16      -3.22      18.29
C       3.87      -3.52      17.13
C       1.58      -2.58      20.54
C       0.46      -2.11      21.48
C       0.93      -0.92      22.32
C       0.06      -3.28      22.39
C       0.65      -7.72      27.11
C       0.80      -6.66      26.08
C       2.02      -6.00      25.86
C       2.13      -5.02      24.88
C       1.01      -4.68      24.10
C      -0.22      -5.33      24.31
C      -0.31      -6.32      25.29
C       4.84      -2.90      14.91
O      -0.74       3.95      27.62
O       1.28       4.51      26.82
O      -0.15      -0.60      23.22
O       5.45      -3.99      14.81
O       5.03      -1.94      14.05
O       1.77      -1.59      19.50
O      -0.42      -8.40      27.19
O       1.65      -7.96      27.91
O       1.20      -3.69      23.16
O      -1.11      -2.76      19.78
O      -5.59      -0.93      15.58
O      -5.02      -2.97      14.81
H      -4.43      -0.32      17.72
H      -2.76      -0.57      19.54
H      -1.57      -4.38      17.90
H      -3.26      -4.09      16.06
H      -1.61      -1.47      21.34
H      -0.53      -0.77      20.10
H       2.10       2.99      25.02
H       1.97       1.12      23.39
H      -1.89       0.02      24.97
H      -1.76       1.94      26.58
H       3.31      -0.68      15.36
H       1.95      -0.16      17.39
H       3.14      -3.93      19.11
H       4.41      -4.46      17.04
H       2.51      -2.75      21.09
H       1.27      -3.53      20.08
H       1.83      -1.18      22.89
H       1.16      -0.06      21.68
H      -0.75      -2.96      23.06
H      -0.31      -4.12      21.78
H       2.88      -6.27      26.47
H       3.07      -4.51      24.69
H      -1.09      -5.08      23.71
H      -1.24      -6.85      25.46
C      -4.92      -1.98      15.67
C      -3.94      -2.18      16.78
C      -3.80      -1.20      17.77
C      -2.86      -1.35      18.79
C      -2.06      -2.50      18.82
C      -2.21      -3.50      17.84
C      -3.14      -3.34      16.83
C      -0.77      -1.68      20.67
C       0.28       3.75      26.82
C       0.19       2.58      25.90
C       1.23       2.33      25.00
C       1.16       1.28      24.10
C       0.03       0.46      24.09
C      -1.02       0.68      24.99
C      -0.94       1.74      25.89
C       3.95      -2.61      16.07
C       3.26      -1.39      16.18
C       2.52      -1.09      17.32
