16

C       2.22      15.95       8.18
C       1.40      16.54       9.17
C       1.80      17.71       9.85
C       3.03      18.23       9.50
N       0.27      15.77       9.26
C       3.47      16.50       7.83
N       1.56      14.84       7.73
N       0.40      14.76       8.40
C       3.87      17.66       8.49
C       5.18      18.33       8.17
H       1.16      18.15      10.61
H       3.38      19.13      10.00
H       4.08      16.04       7.05
H       5.78      17.73       7.47
H       5.02      19.32       7.73
H       5.77      18.48       9.08
