16

C      13.24      -4.90      11.86
C      12.66      -5.58      10.76
C      13.29      -6.68      10.16
C      14.51      -7.08      10.69
C      15.08      -6.38      11.80
C      14.48      -5.29      12.39
C      15.26      -8.25      10.11
N      11.47      -4.95      10.49
N      11.34      -3.94      11.36
H      12.86      -7.16       9.28
N      12.38      -3.89      12.19
H      14.94      -4.74      13.21
H      16.05      -6.71      12.17
H      15.38      -9.05      10.84
H      16.27      -7.94       9.80
H      14.75      -8.66       9.23
