16

C      -2.82       2.34      12.90
H      -6.42       2.73       9.86
N      -6.68      -0.84      12.43
N      -7.71      -0.79      11.58
N      -7.65       0.30      10.82
H      -4.26       0.12      13.62
H      -4.26       3.48      10.90
H      -2.46       3.25      12.40
H      -2.04       1.57      12.82
H      -2.92       2.58      13.97
C      -5.91       0.27      12.22
C      -6.53       1.00      11.17
C      -5.95       2.18      10.68
C      -4.75       2.58      11.26
C      -4.12       1.85      12.32
C      -4.70       0.69      12.81
