16

C      -0.81      -7.36      14.85
C      -0.57      -6.58      13.72
C      -0.30      -7.25      12.51
H      -0.95      -9.35      15.67
H      -0.63      -5.49      13.74
H      -1.18      -7.41      16.99
H      -0.39      -5.92      16.41
N      -0.07      -6.79      11.25
N       0.08      -7.85      10.44
N      -0.03      -8.99      11.13
H      -2.11      -6.18      16.11
C      -1.13      -6.69      16.16
H      -0.48     -10.54      13.53
C      -0.28      -8.67      12.44
C      -0.50      -9.46      13.58
C      -0.76      -8.78      14.76
