16

H      15.82      13.69       0.18
H      17.13      14.75      -0.37
H      17.28      13.00      -0.55
C      17.44      13.50       3.85
C      18.85      13.54       3.95
C      19.64      13.68       2.80
C      18.98      13.76       1.59
C      17.55      13.71       1.48
C      16.77      13.58       2.62
C      16.91      13.79       0.11
H      20.73      13.74       2.86
H      19.56      13.87       0.67
H      15.69      13.54       2.56
N      19.16      13.43       5.28
N      18.01      13.33       5.96
N      16.96      13.37       5.13
