18

Gd       1.72       0.99       0.57
C       1.49      -1.14      -1.62
Gd       4.68      -0.99      -0.57
C       3.07      -2.55      -2.98
O       2.40       1.90      -1.46
O       4.28       0.77      -2.03
O      -0.35       0.54       1.45
O       4.05       0.99       0.67
O       2.32       2.38       2.17
O       4.01      -1.90       1.46
O       2.13      -0.77       2.03
C      -1.49       1.14       1.62
C       2.98      -1.73       2.22
O       6.76      -0.54      -1.45
O       2.35      -0.99      -0.67
C       3.42       1.73      -2.22
O       4.09      -2.38      -2.17
C       3.34       2.55       2.98
