20

H      10.06       3.54      17.31
H      10.39       3.64      19.72
H       5.99       6.82      20.21
H       5.53       4.82      17.96
H       5.86       4.95      20.32
H       5.64       6.69      17.84
C       7.80       4.37      16.04
C       8.91       4.99      21.53
C       8.66       4.90      20.11
C       8.31       4.81      17.32
C       7.72       5.72      19.49
C       7.53       5.67      18.13
C       9.41       4.17      17.90
C       9.58       4.20      19.29
C       6.26       5.83      19.77
C       6.05       5.75      18.28
O       8.16       3.23      15.60
O       9.62       4.07      22.03
O       6.87       5.04      15.51
O       8.71       6.10      22.12
