20

H      10.19       2.03       8.25
H       8.16       1.96      10.48
H       8.33       2.11       8.12
H      10.03       1.88      10.63
H       7.50       6.73      10.79
H       7.68       6.85       8.33
C       9.24       2.44       8.65
C       9.15       2.35      10.15
C       7.83       4.37      12.18
C       8.87       4.98       6.70
C       8.62       4.91       8.13
C       8.42       4.77      10.91
C       9.28       3.92       8.84
C       9.20       3.85      10.20
C       7.99       5.93      10.24
C       8.07       5.99       8.85
O       8.15       3.22      12.58
O       9.62       4.07       6.24
O       6.88       5.04      12.71
O       8.68       6.08       6.10
