20

H       7.63       9.15       8.25
H       8.49      10.92      10.53
H       8.57      10.77       8.17
H       7.59       9.28      10.63
H      13.07       9.34      10.74
H      13.07       9.20       8.28
C       8.44       9.78       8.67
C       8.41       9.87      10.17
C      10.85      10.08      12.17
C      10.84       8.88       6.69
C      10.91       9.19       8.10
C      10.91       9.39      10.90
C       9.73       9.06       8.83
C       9.72       9.14      10.20
C      12.13       9.26      10.21
C      12.13       9.19       8.81
O       9.69      10.37      12.58
O       9.69       8.66       6.24
O      11.90      10.57      12.71
O      11.89       8.47       6.10
