204

C       2.87      21.92      13.05
C       9.61       8.33      12.82
C       9.78       9.68      13.22
C       9.84      10.78      12.33
C       9.70      10.55      10.93
C       9.53       9.21      10.49
C       9.50       8.14      11.41
C       9.62       7.24      13.76
C       9.53       7.43      15.17
C       9.56       6.36      16.09
C       9.72       5.03      15.65
C       9.85       4.79      14.25
C       9.77       5.89      13.36
C       3.00      21.58      11.68
C       3.09      20.26      11.18
C       2.99      19.17      12.08
C       2.84      19.46      13.47
C       2.81      20.79      13.92
C       2.87      -6.35      13.52
C       2.80      -5.22      12.65
C       2.83      -3.89      13.11
C       2.98      -3.60      14.49
C       3.08      -4.69      15.39
C       2.99      -6.01      14.90
C       6.26      15.32       1.15
C       6.42      14.29       2.11
C       6.49      14.51       3.51
C       6.36      15.83       4.02
C       6.19      16.88       3.08
C       6.16      16.63       1.70
C       6.26       0.24      25.39
C       6.19      -1.07      24.84
C       6.22      -1.33      23.46
C       6.36      -0.27      22.52
C       6.47       1.05      23.03
C       6.39       1.28      24.42
C       7.54      11.35       5.22
C       8.80       9.34       5.59
C       8.76       9.55       6.98
C       7.44      11.54       6.63
C       6.64      12.45       7.30
C       4.33      12.26       7.01
C       3.17      12.98       6.29
C       7.10      12.20       4.19
C       9.31       8.62       7.88
C       0.85      13.84      14.18
C       2.22      15.10      15.70
C       2.14      16.23      14.86
C       0.71      14.99      13.35
C       9.94      15.15      12.28
C       7.64      14.86      12.58
C       6.53      13.84      12.26
C       0.40      12.53      13.97
C       2.73      17.44      15.23
C       4.16      20.34       7.60
C       5.50      21.02       5.72
C       5.44      19.73       5.18
C       4.04      19.04       7.03
C       3.18      18.02       7.44
C       0.89      18.43       7.52
C       9.86      18.68       8.54
C       3.71      20.81       8.84
C       6.02      19.43       3.94
C       7.52       4.21      21.32
C       8.86       6.18      20.98
C       8.82       5.99      19.59
C       7.42       4.04      19.91
C       6.58       3.17      19.23
C       4.28       3.31      19.61
C       3.16       2.54      20.34
C       7.06       3.37      22.35
C       9.40       6.91      18.71
C       0.84       1.73      12.39
C       2.18       0.46      10.86
C       2.12      -0.66      11.71
C       0.72       0.59      13.23
C       9.95       0.43      14.31
C       7.65       0.70      14.00
C       6.53       1.71      14.30
C       0.38       3.04      12.61
C       2.70      -1.88      11.34
C       4.18      -4.77      18.97
C       5.58      -5.45      20.80
C       5.51      -4.16      21.35
C       4.06      -3.47      19.55
C       3.18      -2.47      19.16
C       0.88      -2.88      19.06
C       9.86      -3.13      18.03
C       3.71      -5.24      17.73
C       6.11      -3.86      22.58
H       2.67      20.92      14.92
H       9.93       9.88      14.20
H       9.90       5.69      12.38
H       9.96       4.19      17.50
H      10.05       3.10      16.27
H       9.91      11.39       9.08
H      10.02      12.48      10.31
H       9.33       7.22      11.02
H       9.36       8.35      15.56
H       3.10      22.33      11.00
H       3.09      -6.76      15.57
H       3.25      -1.58      14.29
H       3.30      -2.10      15.85
H       3.26      17.15      12.29
H       3.31      17.67      10.73
H       2.66      -5.35      11.65
H       6.56      13.34       1.79
H       6.50       2.23      24.74
H       6.61      -1.44      20.86
H       6.67       0.17      20.54
H       6.56      17.00       5.68
H       6.68      15.39       5.99
H       6.00      17.43       1.10
H       6.05      -1.87      25.44
H       9.29       8.54       5.18
H       4.12      12.24       8.08
H       4.39      11.23       6.63
H       3.07      14.00       6.66
H       2.23      12.45       6.47
H       3.36      13.01       5.21
H       7.23      11.86       3.24
H       9.61       7.70       7.55
H       2.76      15.11      16.57
H       7.39      15.81      12.10
H       7.68      15.01      13.66
H       6.45      13.69      11.19
H       5.57      14.21      12.64
H       6.75      12.89      12.74
H       0.54      11.86      14.73
H       3.07      17.56      16.19
H       6.03      21.77       5.27
H       0.64      17.53       6.95
H       0.94      19.28       6.84
H       9.77      17.84       9.23
H       8.90      18.82       8.03
H      10.08      19.58       9.12
H       3.85      21.80       9.03
H       6.34      20.19       3.34
H       9.38       6.95      21.41
H       4.03       3.38      18.55
H       4.34       4.32      20.03
H       3.06       1.53      19.92
H       2.21       3.06      20.21
H       3.38       2.46      21.40
H       7.20       3.70      23.30
H       9.72       7.82      19.07
H       2.71       0.45       9.98
H       7.41      -0.26      14.48
H       7.71       0.54      12.92
H       6.44       1.86      15.37
H       5.58       1.33      13.91
H       6.75       2.66      13.82
H       0.52       3.71      11.84
H       3.03      -2.00      10.38
H       6.12      -6.19      21.24
H       0.62      -1.99      19.65
H       0.93      -3.74      19.74
H       9.77      -2.27      17.35
H       8.90      -3.27      18.53
H      10.08      -4.02      17.44
H       3.86      -6.23      17.53
H       6.46      -4.63      23.17
N       9.84      11.56      10.04
N       9.87       4.01      16.55
N       0.06       3.54      13.82
N       9.49       6.71      17.39
N       9.43       8.88       9.19
N       0.06      12.03      12.76
N       3.15      17.88      11.66
N       3.14      -2.31      14.92
N       3.39      -4.43      16.69
N       2.79      -2.95      12.15
N       2.81      18.52      14.43
N       3.39      20.01       9.88
N       6.50      16.09       5.35
N       6.52      -0.53      21.19
N       6.76       2.06      22.16
N       6.19      -2.63      23.11
N       6.12      18.18       3.45
N       6.79      13.50       4.37
N       8.21      10.25       4.79
N       8.06      10.62       7.42
N       1.59      13.97      15.32
N       1.37      16.12      13.75
N       4.88      21.26       6.89
N       4.69      18.81       5.85
N       8.23       5.28      21.77
N       8.07       4.95      19.13
N       1.56       1.59      11.25
N       1.36      -0.54      12.83
N       4.93      -5.68      19.64
N       4.73      -3.25      20.71
O       7.18      13.15       8.15
O       5.55      12.98       6.74
O       0.26      15.72      11.28
O       8.89      14.34      12.08
O       3.60      16.87       7.43
O       2.13      18.26       8.23
O       7.03       2.56      18.27
O       5.52       2.60      19.81
O       0.30      -0.10      15.32
O       8.89       1.22      14.51
O       3.55      -1.31      19.22
O       2.12      -2.70      18.37
