45

Zn       5.37      -2.26       9.99
H       8.07      -1.70      11.30
H       8.99      -1.60      13.59
H       5.05      -2.66      15.04
H       4.33      -2.81      12.70
H       9.62      -1.41      15.50
H       0.56      -3.54       2.05
H       4.30      -2.38       0.70
H       5.18      -2.16       2.95
H       2.80      -3.02       8.59
H       1.91      -3.19       6.30
H       5.85      -2.12       4.85
H       6.55      -1.88       7.20
H       1.29      -3.42       4.41
H      10.31      -1.31      17.88
H       6.51      -2.41      19.15
H       5.67      -2.59      16.89
C       7.45      -1.93      12.16
C       7.95      -1.86      13.46
C       7.10      -2.11      14.55
C       5.77      -2.45      14.26
C       5.35      -2.51      12.94
C       7.57      -2.01      15.95
C       8.89      -1.64      16.27
C       9.29      -1.57      17.61
C       3.64      -2.60       1.54
C       4.15      -2.47       2.83
C       3.43      -2.79       7.73
C       2.96      -2.91       6.43
C       3.80      -2.67       5.33
C       5.12      -2.31       5.63
C       5.53      -2.19       6.95
C       3.32      -2.77       3.93
C       2.00      -3.18       3.63
C       1.58      -3.26       2.30
C       7.18      -2.19      18.32
C       6.71      -2.30      17.02
S       3.16      -4.75      11.09
S       7.83      -0.13       8.83
N       6.17      -2.25      11.90
N       8.45      -1.83      18.63
N       4.71      -2.42       8.00
N       2.38      -2.98       1.25
O       4.14      -3.81      10.41
O       7.07      -1.34       9.34
