14

C      11.00      26.06       8.70
C      10.20      21.48       6.59
O       9.49      24.73       5.91
O       8.35      24.08       7.78
Cu      11.22      24.12       6.65
Cu       9.99      23.42       8.64
O      10.88      22.33       5.91
C       8.42      24.57       6.59
O       9.74      21.66       7.78
C      12.78      22.97       8.70
O      11.47      25.87       7.52
O      10.32      25.22       9.39
O      12.85      23.47       7.53
O      11.71      22.80       9.39
