14

Cu      -0.00      12.95      18.33
Cu      -0.00      11.54      16.33
O       1.39      11.76      19.07
O       1.39      10.44      17.20
O       1.39      12.72      15.59
O      -1.39      11.76      19.07
O      -1.39      10.44      17.20
C      -1.78      10.75      18.39
C       1.78      13.73      16.28
O       1.39      14.04      17.45
C       1.78      10.75      18.39
O      -1.39      14.04      17.45
O      -1.39      12.72      15.59
C      -1.78      13.73      16.28
