14

Cu      15.28      31.16       6.65
Cu      15.28      32.58       8.64
O      13.90      30.08       7.52
O      13.89      31.40       9.39
O      16.67      30.08       7.52
O      16.68      31.40       9.39
C      13.50      33.36       6.59
O      13.90      32.36       5.91
O      13.89      33.67       7.78
C      17.06      30.38       8.70
O      16.67      32.36       5.91
O      16.68      33.67       7.78
C      13.50      30.38       8.70
C      17.06      33.36       6.59
