20

Zn       5.72       5.10       6.70
Zn       2.78       5.58       6.23
H       8.02       4.14       7.74
H      10.54       6.51       5.16
C       3.92       2.80       6.44
C       4.57       7.88       6.50
C      10.00       5.24       6.58
C       8.55       5.41       6.32
C       3.88       5.27       9.04
C       4.60       5.30       3.90
N      10.88       5.91       5.91
N       7.67       4.78       7.01
O       5.13       3.23       6.57
O       3.37       7.45       6.35
O       2.93       3.59       6.22
O       5.57       7.09       6.71
O       5.09       5.15       8.60
O       3.41       5.54       4.33
O       2.89       5.51       8.24
O       5.61       5.17       4.68
