640

H       1.84      43.51      41.82
H       5.44      43.69       0.18
H      40.16       0.01      43.76
H      43.78      42.02       1.02
H       1.48      43.33       2.91
H       0.45       1.92      41.81
H      20.07       0.32      19.91
H      16.47       0.14      22.10
H      25.59      43.82      21.84
H      21.97       1.81      22.94
H      20.44       0.49      24.82
H      21.47      41.90      19.89
H      10.25      34.54       9.03
H      10.98      38.14      11.05
H      10.84      28.99      10.89
H      12.82      32.59      11.70
H      12.48      34.13      13.45
H       8.49      32.92       9.25
H      11.67       9.29      30.95
H      10.94       5.69      32.97
H      11.07      14.84      32.80
H       9.09      11.24      33.61
H       9.43       9.70      35.37
H      13.42      10.91      31.17
H      33.75       9.83      34.69
H      32.75       6.24      32.76
H      33.10      15.38      32.87
H      30.99      11.80      32.29
H      31.17      10.27      30.47
H      35.54      11.39      34.24
H      31.99      34.00      12.77
H      33.00      37.58      10.84
H      32.64      28.45      10.94
H      34.75      32.02      10.37
H      34.58      33.56       8.55
H      30.21      32.44      12.32
H      22.54      22.45      19.94
H      26.16      21.68      21.92
H      17.03      22.16      21.90
H      20.57      20.09      22.76
H      22.17      20.49      24.49
H      21.23      24.74      21.78
H      43.21      21.38      41.86
H      39.59      22.14       0.01
H       4.88      21.68      43.80
H       1.34      23.74       0.84
H      43.58      23.34       2.58
H       0.69      19.09      43.69
H      40.13      39.00       1.71
H      35.49      38.97       8.00
H      37.09      35.35       6.58
H      40.82      41.62       4.93
H      35.82      35.58       8.75
H      42.21      41.62       2.86
H      25.62       4.83      23.62
H      30.26       4.85      29.92
H      28.66       8.48      28.50
H      24.93       2.21      26.84
H      29.93       8.25      30.66
H      23.54       2.21      24.78
H      15.64      28.71      12.73
H      14.88      24.56      19.24
H      18.75      25.60      17.98
H      13.09      30.05      15.80
H      17.06      24.22      20.67
H      13.23      31.17      13.63
H       6.27      15.13      34.64
H       7.03      19.27      41.15
H       3.16      18.24      39.88
H       8.82      13.79      37.71
H       4.85      19.62      42.58
H       8.67      12.65      35.54
H      25.71      39.05      20.07
H      30.34      39.00      13.71
H      28.96      35.41      15.41
H      25.16      41.74      16.88
H      30.15      35.51      13.23
H      23.74      41.80      18.87
H      40.04       4.78      41.99
H      35.40       4.82      35.64
H      36.78       8.42      37.33
H      40.58       2.09      38.80
H      35.59       8.31      35.15
H      42.01       2.03      40.79
H       6.21      28.68       8.92
H       7.21      24.15       2.61
H       3.34      25.22       3.85
H       9.10      29.59       6.00
H       5.00      23.80       1.16
H       8.92      30.89       8.03
H      15.70      15.15      30.84
H      14.70      19.69      24.54
H      18.57      18.62      25.78
H      12.81      14.24      27.92
H      16.91      20.03      23.09
H      13.00      12.94      29.94
H       4.95       5.07      43.12
H       8.51       4.34      36.17
H       7.33       8.12      37.59
H       3.51       2.32      40.28
H       8.21       7.70      35.27
H       3.17       3.40      43.68
H      16.96      38.76      21.21
H      13.40      39.49      14.25
H      14.58      35.71      15.68
H      18.40      41.51      18.37
H      13.70      36.13      13.35
H      18.74      40.43      21.77
H      28.05      15.61      31.67
H      27.60      19.59      24.94
H      24.07      18.26      26.80
H      30.29      14.48      28.28
H      24.18      19.22      24.46
H      30.41      13.26      30.42
H      37.69      28.22       9.75
H      38.15      24.23       3.03
H      41.68      25.56       4.89
H      35.46      29.34       6.37
H      41.57      24.60       2.54
H      35.35      30.57       8.50
H      17.20       4.78      22.85
H      13.73       4.46      29.92
H      14.20       8.11      27.88
H      18.92       2.65      26.04
H      13.46       7.94      30.26
H      19.24       3.36      22.54
H       4.71      39.05       0.94
H       8.19      39.37       8.00
H       7.72      35.72       5.96
H       2.99      41.18       4.13
H       8.45      35.89       8.34
H       2.67      40.46       0.63
H      37.98      15.57      34.17
H      38.20      19.84      40.78
H      41.76      18.64      38.87
H      35.49      14.79      37.47
H      41.69      19.62      41.16
H      35.37      13.46      35.46
H      27.77      28.25      12.25
H      27.54      23.99      18.86
H      23.99      25.19      16.96
H      30.26      29.03      15.55
H      24.06      24.21      19.25
H      30.38      30.36      13.54
C       1.58      43.83       0.06
C       2.33      43.63      42.72
C       3.74      43.57      42.75
C       4.41      43.72       0.15
C       3.68       0.09       1.34
C       2.26       0.13       1.30
C       0.16       0.02      43.83
C      43.30       1.07      43.19
C      41.88       1.08      43.17
C      41.19       0.01      43.77
C      41.86      42.77       0.56
C      43.27      42.80       0.59
C      41.12      41.72       1.18
C      41.13       2.14      42.59
C       4.42      43.40      41.66
C       4.32       0.21       2.47
C      20.33      43.83      21.98
C      19.58       0.20      20.80
C      18.17       0.25      20.84
C      17.50       0.10      22.07
C      18.23      43.74      23.26
C      19.65      43.69      23.22
C      21.75      43.81      21.91
C      22.45      42.75      21.27
C      23.87      42.74      21.26
C      24.56      43.82      21.85
C      23.89       1.06      22.48
C      22.48       1.03      22.50
C      24.63       2.10      23.10
C      24.61      41.68      20.67
C      17.49       0.43      19.74
C      17.59      43.62      24.39
C      10.90      34.28      11.02
C      10.51      35.04       9.89
C      10.47      36.45       9.90
C      10.96      37.12      11.04
C      11.42      36.41      12.17
C      11.35      34.99      12.17
C      10.85      32.85      10.97
C       9.72      32.14      10.48
C       9.73      30.72      10.41
C      10.85      30.02      10.90
C      11.97      30.69      11.43
C      11.98      32.10      11.40
C      13.04      29.95      12.04
C       8.67      29.99       9.80
C       9.92      37.19       8.81
C      11.96      37.13      13.27
C      11.02       9.55      32.94
C      11.41       8.79      31.81
C      11.44       7.38      31.81
C      10.95       6.71      32.95
C      10.48       7.42      34.08
C      10.56       8.84      34.09
C      11.06      10.98      32.89
C      12.19      11.69      32.40
C      12.19      13.11      32.33
C      11.06      13.81      32.82
C       9.94      13.14      33.35
C       9.94      11.73      33.32
C       8.88      13.88      33.96
C      13.24      13.84      31.72
C      12.00       6.64      30.72
C       9.95       6.69      35.18
C      32.95      10.10      32.75
C      33.40       9.34      33.86
C      33.38       7.93      33.86
C      32.80       7.27      32.76
C      32.30       7.99      31.65
C      32.40       9.40      31.64
C      33.03      11.53      32.79
C      34.22      12.22      33.15
C      34.24      13.64      33.20
C      33.07      14.35      32.85
C      31.88      13.70      32.47
C      31.87      12.29      32.50
C      30.76      14.44      32.00
C      35.37      14.35      33.67
C      33.95       7.18      34.93
C      31.69       7.27      30.59
C      32.79      33.73      10.83
C      32.34      34.49      11.94
C      32.37      35.90      11.94
C      32.95      36.56      10.84
C      33.45      35.84       9.73
C      33.34      34.43       9.72
C      32.72      32.30      10.87
C      31.53      31.61      11.22
C      31.50      30.19      11.28
C      32.67      29.47      10.93
C      33.86      30.13      10.55
C      33.88      31.54      10.57
C      34.98      29.38      10.08
C      30.37      29.48      11.74
C      31.79      36.65      13.00
C      34.06      36.56       8.68
C      22.31      21.92      21.98
C      23.04      22.20      20.80
C      24.45      22.16      20.77
C      25.13      21.73      21.93
C      24.44      21.41      23.11
C      23.02      21.52      23.14
C      20.88      22.02      21.96
C      20.21      23.17      21.46
C      18.79      23.22      21.39
C      18.06      22.13      21.91
C      18.69      20.98      22.44
C      20.10      20.94      22.42
C      17.94      19.93      23.03
C      18.09      24.29      20.76
C      25.19      22.59      19.64
C      25.18      20.95      24.24
C      43.44      21.91       0.06
C      42.70      21.63      42.72
C      41.29      21.67      42.69
C      40.61      22.10       0.01
C      41.31      22.42       1.20
C      42.73      22.30       1.22
C       1.03      21.81       0.04
C       1.70      20.66      43.37
C       3.12      20.61      43.30
C       3.85      21.71      43.82
C       3.22      22.85       0.52
C       1.81      22.90       0.50
C       3.97      23.90       1.11
C       3.82      19.54      42.67
C      40.56      21.24      41.55
C      40.57      22.87       2.32
C      40.62      40.44       3.17
C      40.37      40.80       4.51
C      38.76      39.04       4.78
C      39.02      38.58       3.45
C      39.95      39.30       2.67
C      37.83      38.43       5.66
C      36.95      39.17       6.49
C      36.09      38.45       7.36
C      36.10      37.04       7.41
C      37.02      36.37       6.57
C      25.13       3.38      25.08
C      25.38       3.03      26.43
C      26.98       4.79      26.69
C      26.73       5.24      25.37
C      25.80       4.52      24.58
C      27.92       5.40      27.57
C      28.80       4.66      28.41
C      29.66       5.38      29.28
C      29.65       6.79      29.33
C      28.73       7.46      28.49
C      14.25      29.52      14.09
C      13.85      29.46      15.45
C      15.41      27.71      15.93
C      15.90      27.76      14.60
C      15.31      28.67      13.70
C      15.86      26.78      16.91
C      14.96      26.04      17.73
C      15.51      25.13      18.67
C      16.90      24.98      18.80
C      17.74      25.72      17.95
C       7.66      14.31      36.00
C       8.06      14.37      37.36
C       6.50      16.13      37.84
C       6.01      16.08      36.51
C       6.60      15.16      35.61
C       6.06      17.06      38.82
C       6.95      17.79      39.64
C       6.40      18.71      40.57
C       5.01      18.86      40.71
C       4.17      18.12      39.85
C      25.29      40.54      18.63
C      25.59      40.91      17.30
C      27.18      39.13      17.05
C      26.88      38.66      18.36
C      25.93      39.38      19.13
C      28.12      38.51      16.18
C      28.95      39.22      15.27
C      29.79      38.49      14.41
C      29.85      37.08      14.44
C      28.99      36.43      15.35
C      40.45       3.29      40.55
C      40.15       2.92      39.22
C      38.56       4.70      38.98
C      38.87       5.16      40.28
C      39.82       4.45      41.05
C      37.62       5.32      38.10
C      36.80       4.60      37.19
C      35.95       5.34      36.33
C      35.89       6.75      36.36
C      36.75       7.40      37.28
C       7.78      29.28       7.64
C       8.28      29.08       6.33
C       6.67      27.37       5.86
C       6.07      27.57       7.14
C       6.64      28.53       8.00
C       6.23      26.41       4.91
C       7.13      25.65       4.10
C       6.58      24.73       3.18
C       5.19      24.57       3.04
C       4.35      25.33       3.88
C      14.14      14.54      29.56
C      13.63      14.75      28.26
C      15.24      16.46      27.79
C      15.84      16.26      29.06
C      15.28      15.30      29.93
C      15.68      17.43      26.83
C      14.78      18.19      26.03
C      15.33      19.11      25.10
C      16.72      19.27      24.97
C      17.56      18.51      25.81
C       4.09       3.61      41.87
C       4.13       3.09      40.56
C       5.83       4.65      39.90
C       5.83       5.22      41.21
C       4.95       4.68      42.18
C       6.62       5.14      38.83
C       7.31       4.31      37.91
C       8.04       4.93      36.86
C       8.08       6.34      36.72
C       7.35       7.10      37.65
C      17.82      40.22      19.95
C      17.78      40.74      18.64
C      16.08      39.18      17.99
C      16.08      38.61      19.29
C      16.96      39.15      20.26
C      15.29      38.69      16.92
C      14.60      39.52      15.99
C      13.87      38.90      14.94
C      13.82      37.49      14.81
C      14.56      36.73      15.74
C      29.31      14.91      30.12
C      29.55      15.02      28.74
C      27.85      16.70      28.49
C      27.52      16.59      29.87
C      28.27      15.69      30.67
C      27.19      17.56      27.58
C      27.88      18.32      26.60
C      27.11      19.09      25.69
C      25.70      19.10      25.74
C      25.08      18.31      26.73
C      36.43      28.92       8.21
C      36.20      28.80       6.82
C      37.90      27.13       6.58
C      38.22      27.23       7.96
C      37.48      28.14       8.76
C      38.55      26.26       5.67
C      37.87      25.50       4.69
C      38.63      24.74       3.77
C      40.04      24.72       3.82
C      40.66      25.51       4.82
C      18.22       3.64      24.30
C      18.21       3.27      25.66
C      16.28       4.63      26.09
C      16.23       5.03      24.72
C      17.21       4.51      23.84
C      15.39       5.14      27.08
C      14.87       4.36      28.15
C      14.06       5.01      29.12
C      13.77       6.39      29.05
C      14.34       7.10      27.97
C       3.69      40.19       2.38
C       3.70      40.55       3.74
C       5.63      39.20       4.17
C       5.68      38.80       2.80
C       4.69      39.32       1.92
C       6.52      38.69       5.16
C       7.04      39.47       6.23
C       7.85      38.82       7.20
C       8.14      37.44       7.13
C       7.57      36.73       6.05
C      36.58      15.04      35.66
C      36.27      15.27      37.02
C      38.01      16.91      37.25
C      38.42      16.68      35.91
C      37.69      15.74      35.13
C      38.64      17.82      38.14
C      37.95      18.57      39.13
C      38.70      19.36      40.03
C      40.11      19.43      39.96
C      40.74      18.66      38.96
C      29.16      28.78      13.74
C      29.47      28.55      15.10
C      27.74      26.92      15.33
C      27.33      27.14      13.99
C      28.06      28.08      13.21
C      27.10      26.01      16.22
C      27.80      25.26      17.21
C      27.05      24.47      18.11
C      25.64      24.40      18.04
C      25.01      25.17      17.04
N      39.46      40.11       5.24
N      37.83      37.07       5.74
N      36.91      40.58       6.42
N      38.30      37.48       2.93
N      35.35      36.32       8.31
N      41.46      41.21       2.40
N      26.29       3.72      27.16
N      27.92       6.76      27.66
N      28.84       3.25      28.34
N      27.45       6.34      24.85
N      30.39       7.51      30.23
N      24.30       2.61      24.32
N      14.42      28.57      16.29
N      17.19      26.58      17.05
N      13.56      26.17      17.57
N      16.92      26.86      14.18
N      17.42      23.97      19.65
N      13.58      30.35      13.23
N       7.49      15.27      38.20
N       4.72      17.26      38.96
N       8.35      17.67      39.48
N       5.00      16.98      36.09
N       4.49      19.86      41.56
N       8.33      13.48      35.14
N      26.51      40.21      16.59
N      28.18      37.15      16.17
N      28.94      40.64      15.25
N      27.56      37.55      18.90
N      30.58      36.33      13.55
N      24.42      41.31      19.37
N      39.24       3.61      38.51
N      37.56       6.68      38.09
N      36.80       3.19      37.17
N      38.18       6.28      40.83
N      35.16       7.50      35.47
N      41.33       2.52      41.29
N       7.73      28.15       5.53
N       4.90      26.21       4.76
N       8.53      25.77       4.26
N       4.97      26.77       7.54
N       4.67      23.57       2.19
N       8.42      30.17       8.47
N      14.18      15.68      27.45
N      17.02      17.63      26.68
N      13.38      18.07      26.19
N      16.94      17.06      29.47
N      17.24      20.27      24.12
N      13.50      13.65      30.39
N       4.97       3.62      39.65
N       6.67       6.49      38.65
N       7.28       2.91      38.05
N       6.72       6.27      41.52
N       8.71       6.97      35.68
N       3.24       3.08      42.77
N      16.94      40.21      17.73
N      15.24      37.34      16.74
N      14.63      40.92      16.14
N      15.19      37.56      19.61
N      13.20      36.86      13.76
N      18.67      40.75      20.85
N      28.83      15.90      28.00
N      25.83      17.59      27.60
N      29.30      18.33      26.56
N      26.51      17.41      30.43
N      24.93      19.73      24.79
N      30.10      14.07      30.87
N      36.91      27.93       6.08
N      39.91      26.23       5.68
N      36.45      25.49       4.64
N      39.24      26.42       8.51
N      40.81      24.09       2.88
N      35.65      29.76       8.95
N      17.26       3.78      26.48
N      15.11       6.47      27.06
N      15.14       2.97      28.22
N      15.21       5.88      24.26
N      13.09       7.07      30.03
N      19.18       3.15      23.49
N       4.65      40.05       4.57
N       6.80      37.36       5.14
N       6.77      40.85       6.31
N       6.70      37.95       2.34
N       8.82      36.76       8.11
N       2.73      40.68       1.58
N      36.97      16.18      37.74
N      40.00      17.90      38.12
N      36.53      18.53      39.20
N      39.48      17.43      35.35
N      40.88      20.08      40.89
N      35.81      14.16      34.94
N      28.77      27.65      15.82
N      25.75      25.93      16.20
N      29.21      25.29      17.28
N      26.26      26.40      13.43
N      24.87      23.74      18.98
N      29.93      29.67      13.02
O       1.55       0.36       2.44
O       0.15       2.15      42.72
O      39.92      41.41       0.63
O      40.01       2.53      43.24
O       4.89       0.31       3.47
O       5.02      43.25      40.68
O      20.37      43.47      24.36
O      21.76      41.67      20.80
O      25.83       2.42      22.55
O      25.73      41.29      21.33
O      17.02      43.52      25.39
O      16.89       0.58      18.77
O      11.52      34.32      13.35
O       8.56      32.81      10.22
O      13.26      28.70      11.59
O       8.29      28.84      10.41
O      11.21      38.14      13.78
O      10.50      38.37       8.49
O      10.39       9.51      35.27
O      13.36      11.02      32.14
O       8.65      15.14      33.51
O      13.63      14.98      32.33
O      10.70       5.69      35.70
O      11.41       5.46      30.41
O      32.14      10.08      30.48
O      35.39      11.53      33.28
O      30.58      15.69      32.51
O      35.70      15.49      33.00
O      32.40       6.26      30.03
O      33.26       6.09      35.35
O      33.61      33.75       8.56
O      30.36      32.30      11.36
O      35.15      28.13      10.58
O      30.05      28.34      11.07
O      33.35      37.56       8.11
O      32.48      37.73      13.44
O      22.37      21.44      24.34
O      20.93      24.23      20.99
O      18.40      18.67      22.84
O      18.56      25.55      20.98
O      26.21      21.72      24.65
O      26.27      21.86      19.28
O      43.38      22.39       2.42
O       0.98      19.60      42.90
O       3.51      25.16       0.91
O       3.35      18.29      42.88
O      39.54      22.10       2.74
O      39.47      21.96      41.20
O      37.20      41.10       7.53
O      39.08      36.56       2.58
O      37.60      37.82       1.94
O      35.77      40.99       6.07
O      28.55       2.73      29.45
O      26.68       7.27      24.49
O      28.15       6.01      23.86
O      29.97       2.83      27.99
O      13.01      26.55      18.63
O      17.93      27.48      13.77
O      16.51      26.10      13.27
O      13.04      25.08      17.21
O       8.90      17.28      40.54
O       3.98      16.36      35.68
O       5.41      17.73      35.17
O       8.87      18.75      39.12
O      28.59      41.09      14.13
O      26.76      36.63      19.22
O      28.23      37.87      19.92
O      30.07      41.11      15.54
O      37.16       2.74      36.05
O      38.98       7.20      41.14
O      37.52       5.96      41.84
O      35.67       2.71      37.46
O       9.09      26.13       3.20
O       3.97      27.48       7.80
O       5.25      26.08       8.55
O       9.04      24.68       4.64
O      12.83      17.70      25.12
O      17.95      16.35      29.73
O      16.66      17.75      30.48
O      12.87      19.15      26.56
O       6.77       2.35      37.05
O       6.10       7.30      41.89
O       7.52       5.94      42.43
O       8.43       2.44      38.23
O      15.14      41.48      15.13
O      15.81      36.53      19.98
O      14.39      37.89      20.52
O      13.48      41.39      16.31
O      29.72      17.89      25.46
O      25.59      16.71      30.93
O      26.97      18.17      31.31
O      29.76      19.48      26.74
O      36.02      25.93       3.54
O      40.16      27.11       9.01
O      38.77      25.66       9.40
O      35.99      24.34       4.82
O      15.75       2.68      29.28
O      15.68       6.94      23.77
O      14.50       5.32      23.38
O      14.08       2.30      28.16
O       6.16      41.15       7.37
O       6.23      36.89       1.85
O       7.41      38.51       1.46
O       7.83      41.53       6.25
O      36.14      18.09      40.31
O      40.41      16.67      34.96
O      39.10      18.12      34.38
O      36.04      19.67      39.02
O      29.61      25.73      18.39
O      25.34      27.15      13.04
O      26.65      25.70      12.46
O      29.71      24.15      17.09
