29

Cd      10.27       7.53       6.31
C      13.32       6.88       5.43
H      12.75       6.29       4.72
C       3.72       6.94       5.86
C      10.13       9.37       4.19
H       5.62       5.61       4.47
C       7.15       7.87       7.14
C      14.62       8.42       7.28
C      10.27       7.47       9.12
H       5.17       8.44       7.72
H      15.23       6.27       4.71
H      12.60       8.92       7.90
C      14.70       6.88       5.44
C       7.40       6.37       5.39
N      12.59       7.61       6.31
N       7.96       7.16       6.32
H       3.38       6.18       5.16
H      15.12       9.04       8.03
O       9.99       8.10       4.04
H       7.65       8.48       7.88
H       8.09       5.82       4.76
O      10.06       8.57       8.50
H      17.19       8.48       7.21
C      15.40       7.66       6.38
C       5.16       7.03       6.05
C       6.02       6.27       5.23
C      13.23       8.36       7.22
C      16.84       7.73       6.50
C       5.77       7.84       7.04
