11

Zn      10.11       3.19      10.03
O       9.26       4.40      11.31
O      11.00       4.40       8.77
C       8.62       3.80      12.28
C      11.16       0.88      11.59
C      12.78       2.45      11.02
C      11.61       3.81       7.78
C       9.06       0.89       8.45
C       7.43       2.45       9.02
N      11.50       2.03      10.96
N       8.72       2.04       9.09
