24

Cd       9.74       8.80      11.73
Cd      12.37       5.74      12.07
O      12.40       7.83      12.74
O      11.84       9.65      11.53
Cd       7.78      11.91      12.16
O      14.64       5.66      11.99
O       9.68       9.34       9.32
O       8.07      10.17      10.64
O       5.50      12.01      11.35
O       5.99      10.84      13.20
O       9.27      13.46      11.22
O       8.32      14.00      13.18
O       9.29      10.55      13.32
O      10.32       6.37      11.47
O       8.19       6.93      11.78
O      12.35       3.50      12.00
C      12.68       8.94      12.15
C       5.18      11.20      12.28
C      15.37       6.19      12.89
C       8.67      10.07       9.49
C       9.02       9.72      14.28
C      11.88       2.80      11.04
C       9.08       6.05      11.72
C       9.09      14.26      12.20
