124

Zn       5.71       2.88       1.15
Zn      10.37       8.18       8.72
Zn       0.35       2.41       6.42
Zn       5.01       7.71      13.98
H      10.71       4.52      13.33
H       1.09       5.08      12.31
H       0.53       3.46      10.91
H       3.70       1.15      14.34
H       1.92       1.79      13.03
H       2.17       5.48      14.62
H       3.97       5.27       0.72
H       7.82      10.51      12.71
H       9.12       3.16      13.57
H       0.14       1.03      10.60
H       5.37      10.30       5.76
H       4.27      10.85       4.74
H       4.82       9.24       3.34
H       1.66       6.93       6.77
H       3.44       7.56       5.46
H       3.18       0.19       7.05
H       1.39      10.56       8.29
H       8.26       5.21       5.14
H       6.96       8.94       6.00
H       5.22       6.81       3.03
H       5.35       0.30       9.38
H       6.45      -0.26      10.39
H       5.89       1.35      11.80
H       9.06       3.67       8.37
H       7.28       3.03       9.68
H       7.53      10.40       8.09
H       9.33       0.03       6.85
H       2.46       5.38      10.00
H       3.76       1.65       9.13
H       5.50       3.79      12.11
H       0.01       6.07       1.81
H       9.63       5.51       2.82
H      10.18       7.13       4.23
H       7.02       9.44       0.80
H       8.79       8.80       2.11
H       8.54       5.11       0.52
H       6.75       5.32      14.42
H       2.90       0.09       2.43
H       1.60       7.43       1.57
H      10.58       9.56       4.54
C       0.76       4.26      12.76
C       3.39       2.05      14.39
C       2.33       2.42      13.60
C       1.86       3.72      13.65
C       2.48       4.59      14.53
C       3.54       4.65       0.14
C       7.23       1.44      14.32
C       8.31       1.33      13.27
C       8.40       0.16      12.53
C       9.35       0.05      11.52
C       9.18       2.38      13.04
C      10.15       2.29      12.03
C       6.68       4.57       3.13
C      10.21       1.11      11.29
C       4.60      10.03       5.19
C       1.97       7.82       6.82
C       3.03       8.20       6.03
C       3.50       9.50       6.08
C       2.87      10.36       6.96
C       1.82       9.94       7.71
C       8.85       7.22       6.75
C       7.77       7.11       5.70
C       7.68       5.94       4.96
C       6.73       5.83       3.96
C       6.90       8.15       5.47
C       5.93       8.06       4.46
C       9.40       9.87      10.70
C       5.87       6.88       3.72
C       6.11       0.56       9.95
C       8.75       2.77       8.31
C       7.69       2.40       9.10
C       7.22       1.09       9.05
C       7.84       0.23       8.17
C       8.90       0.65       7.43
C       1.87       3.37       8.39
C       2.95       3.49       9.43
C       3.04       4.66      10.18
C       3.99       4.76      11.18
C       3.82       2.44       9.66
C       4.79       2.53      10.67
C       1.32       0.73       4.44
C       4.85       3.71      11.42
C       9.96       6.33       2.38
C       7.33       8.54       0.75
C       8.39       8.17       1.53
C       8.86       6.87       1.48
C       8.23       6.00       0.61
C       7.17       5.95      14.99
C       3.49       9.15       0.82
C       2.41       9.26       1.86
C       2.32      10.43       2.61
C       1.37      10.54       3.61
C       1.54       8.21       2.10
C       0.57       8.30       3.10
C       4.04       6.02      12.01
C       0.51       9.48       3.85
N       0.28       3.34      11.74
N       4.02       3.37       0.10
N       5.08       9.12       4.17
N       1.34       8.67       7.66
N       5.64       1.47      10.97
N       9.38       1.92       7.47
N      10.44       7.25       3.40
N       6.70       7.22      15.04
O       7.24       2.49      15.06
O       6.37       0.56      14.42
O       5.70       4.49       2.30
O       7.54       3.71       3.26
O       8.83       8.27       7.49
O       9.71       6.34       6.85
O      10.38       9.79       9.87
O       8.53       9.01      10.83
O       1.88       2.32       7.65
O       1.01       4.25       8.28
O       0.34       0.81       5.27
O       2.18       1.58       4.31
O       3.47       8.10       0.08
O       4.35      10.03       0.71
O       5.02       6.10      12.83
O       3.17       6.88      11.88
