72

H      -0.96       3.35      17.84
H      -2.87       1.00      36.95
H       1.65       5.46      24.50
H      -0.89      -1.35      30.66
H       1.57       2.05      35.01
H       2.97       1.96      20.51
H       0.98       5.33      28.82
H      -0.01      -1.25      26.38
H       1.47       5.37      26.84
H      -0.63      -1.27      28.33
H       1.34       1.80      37.43
H       3.19       2.22      18.09
C       1.26       2.96      16.34
C      -0.93       1.23      38.83
C       1.15       3.49      22.76
C      -0.51       0.65      32.40
C       0.53       1.19      22.56
C       0.05       2.95      32.61
C       2.11       2.27      19.93
C       0.60       1.82      35.43
C       2.23       2.42      18.56
C       0.46       1.67      36.81
C      -0.11       3.05      18.43
C      -1.90       1.22      36.53
C      -0.24       2.93      19.82
C      -1.78       1.38      35.14
C       0.89       2.52      20.57
C      -0.51       1.67      34.59
C       0.73       2.18      24.77
C       0.03       1.93      30.40
C       1.07       3.41      24.16
C      -0.34       0.71      31.01
C       1.34       4.52      24.95
C      -0.57      -0.41      30.22
C       0.52       1.04      23.96
C       0.21       3.08      31.21
C       1.12       2.81      17.79
C      -0.79       1.37      37.37
C       0.62       3.21      28.39
C       0.24       0.88      26.80
C       0.04       0.82      28.20
C       0.81       3.27      26.98
C       0.23       1.99      28.99
C       0.59       2.11      26.19
C       0.75       4.35      29.21
C       0.13      -0.27      25.97
C       0.55       4.30      30.59
C       0.27      -0.20      24.59
C       1.22       4.46      26.33
C      -0.39      -0.36      28.85
N       0.84       2.40      22.00
N      -0.32       1.76      33.16
N      -1.50       3.25      20.44
N      -2.95       1.24      34.31
N       0.64       5.53      31.32
N       0.23      -1.44      23.85
O       0.19       2.91      15.59
O       0.13       1.30      39.58
O       2.45       3.13      15.84
O      -2.13       1.07      39.33
O       1.50       4.65      22.17
O      -0.84      -0.52      32.98
O       0.28       4.00      33.43
O       0.19       0.17      21.75
O      -2.39       3.94      19.80
O      -1.79       2.82      21.64
O      -3.89       0.41      34.64
O      -3.11       1.99      33.26
O      -0.42       6.04      31.87
O       1.70       6.28      31.19
O       1.26      -1.81      23.16
O      -0.72      -2.30      24.09
