20

Co       5.17       0.33       9.45
Co       6.82      -0.31      10.80
N       3.65       1.38      10.45
N       6.12       0.57      12.55
N       8.35      -1.37       9.80
N       5.87      -0.57       7.70
O       7.80       1.40      10.32
O       6.10       2.11       9.04
O       4.18      -1.39       9.92
O       5.89      -2.09      11.21
C       7.23       2.29       9.61
C       3.80       2.67      10.85
C       2.55       0.73      10.93
C       5.08       0.05      13.26
C       6.47       1.85      12.86
C       4.76      -2.28      10.63
C       8.19      -2.65       9.39
C       9.45      -0.72       9.33
C       6.91      -0.05       7.00
C       5.51      -1.84       7.39
