66

Mn      22.92      25.52      27.71
Mn      21.68      28.77      31.11
Mn      26.52      26.42      24.68
C      26.64      23.54      24.44
C      24.83      24.33      26.03
C      24.68      27.78      26.19
C      19.96      31.13      32.47
Mn      29.05      32.10      29.92
Mn      30.30      28.85      26.53
Mn      25.46      31.20      32.96
N      26.94      31.26      34.72
N      30.00      30.91      28.72
N      29.34      30.63      27.52
N      28.97      27.99      25.39
N      28.16      27.04      26.04
N      31.75      27.08      26.34
N      26.77      32.01      31.77
N      27.56      31.08      31.07
C      31.52      31.18      31.20
N      25.03      26.36      22.92
C      31.17      30.25      28.86
C      28.24      31.34      27.43
O      21.54      25.66      26.44
O      20.37      28.15      29.72
O      24.06      25.40      29.27
O      20.94      27.91      32.59
C      30.69      29.68      23.76
O      22.59      29.89      29.78
O      27.19      24.73      24.25
O      23.83      24.04      26.81
O      25.58      28.04      25.29
C      28.45      26.97      27.32
C      23.71      26.42      23.14
C      25.45      26.28      21.64
C      28.73      28.09      24.07
O      24.20      30.21      34.12
C      32.13      26.45      27.47
C      32.01      26.49      25.16
C      25.33      34.09      33.20
C      27.14      33.29      31.60
C      27.29      29.84      31.45
O      30.43      31.96      31.19
O      31.60      29.48      27.92
O      27.91      32.22      28.37
O      31.03      29.72      25.05
C      20.45      26.45      26.44
O      27.78      27.41      23.52
O      29.38      27.73      27.85
O      28.14      33.58      30.82
O      24.78      32.89      33.39
O      26.39      29.58      32.35
C      20.80      27.37      28.78
C      23.74      26.28      30.20
C      21.28      27.94      33.88
C      19.84      31.17      30.16
C      23.24      29.53      33.57
C      23.52      30.66      30.32
C      28.26      31.20      34.49
C      26.52      31.34      35.99
N      21.97      26.71      28.91
N      22.64      26.99      30.11
N      23.00      29.63      32.25
N      23.81      30.58      31.60
N      20.22      30.54      31.29
N      25.20      25.61      25.87
N      24.41      26.54      26.57
