66

N      13.31      16.49      14.32
N      13.98      16.22      13.12
N      14.36      13.57      10.98
Mn      14.26      17.68      15.51
Mn      13.04      14.43      12.12
Mn      17.85      16.80      18.56
N      15.75      16.67      16.66
N      16.54      17.60      17.36
N      11.58      12.67      11.93
N      15.16      12.62      11.63
C      18.50       9.93      11.62
C      18.64      13.38      11.78
Mn      20.41      11.13      13.30
Mn      21.63      14.38      16.69
Mn      16.82      12.01      10.26
C      11.79      16.76      16.79
N      18.31      11.96       8.51
C      12.14      15.84      14.45
C      15.07      16.93      13.03
C      12.65      15.27       9.36
N      21.36      12.32      14.50
N      20.31      15.24      17.84
N      19.50      16.19      17.19
N      20.69      12.59      15.70
N      18.13      11.21      11.46
C      14.60      13.68       9.66
C      14.88      12.55      12.91
N      18.91      12.14      12.16
C      19.63      12.02       8.74
C      17.89      11.88       7.23
N      23.09      16.14      16.89
C      11.21      12.04      13.06
C      11.33      12.08      10.75
C      17.96      19.69      18.79
N      16.36      16.85      20.31
C      16.17      18.88      17.20
C      16.02      15.43      17.04
O      12.88      17.55      16.79
O      11.71      15.06      13.51
O      15.39      17.82      13.96
O      12.33      15.32      10.65
O      15.56      13.00       9.11
O      13.95      13.31      13.44
O      18.51      18.49      18.98
O      15.16      19.17      16.41
O      16.93      15.18      17.94
C      22.87      12.05      12.03
O      21.79      11.26      12.03
C      22.53      12.97      14.37
O      19.28      10.99      14.86
C      19.59      11.88      15.79
O      19.11      15.81      19.71
O      22.96      13.75      15.30
O      16.15      10.32       9.84
O      19.50       9.64      12.41
O      17.74      13.63      10.88
O      22.34      13.49      18.17
O      20.72      15.50      15.37
C      22.01      13.54      19.46
C      15.04      16.79      20.08
C      19.79      16.26      15.91
C      20.07      15.13      19.16
C      16.78      16.93      21.59
C      23.46      16.77      15.76
C      23.34      16.73      18.07
C      16.70       9.12      10.03
