16

C      10.29       9.53      24.59
C      12.07       8.86      22.96
C      13.40       8.87      22.51
O       9.43       9.00      23.82
O      10.04      10.07      25.72
O      12.86       7.43      20.66
O      14.99       8.04      20.93
H      15.40       9.56      22.87
H      14.80      10.77      24.97
C      13.74       8.08      21.29
H      11.31       8.32      22.41
C      14.38       9.56      23.23
C      14.03      10.23      24.40
C      12.71      10.21      24.86
C      11.72       9.53      24.14
H      12.44      10.71      25.79
