13

N       3.06       4.88      20.19
H       3.36       7.61      19.22
H       3.27       7.57      20.99
H       1.83       8.05      20.06
N       1.01       4.19      19.77
H       3.37       2.15      19.22
H       1.84       1.71      20.06
H       3.27       2.18      20.99
C       2.70       2.37      20.07
C       2.25       3.79      20.02
C       2.70       7.38      20.07
C       2.25       5.97      20.02
N       1.01       5.57      19.77
