13

N      14.52       7.22      17.60
N      13.61       6.53      16.82
N      14.54       8.11      15.58
H      17.10       8.73      17.11
H      16.01      10.07      16.72
C      16.09       9.13      17.29
C      15.06       8.17      16.83
H      15.97       9.33      18.36
C      13.64       7.09      15.60
C      12.80       6.65      14.46
H      11.97       6.03      14.81
H      12.43       7.53      13.93
H      13.41       6.09      13.74
