16

O       6.13      18.74       1.54
O       5.52      19.82      -0.35
O       2.70      17.17       4.70
O       0.57      17.77       4.43
H       0.16      19.30       2.49
C       5.28      19.27       0.77
C       3.84      19.28       1.23
C       3.49      18.61       2.40
C       1.81      17.82       4.07
C       2.16      18.61       2.85
C       1.18      19.30       2.13
C       1.53      19.98       0.96
C       2.85      19.95       0.50
H       0.76      20.51       0.39
H       3.12      20.45      -0.43
H       4.25      18.06       2.96
