16

C       1.52       9.24       0.95
C       2.84       9.27       0.49
C       3.83       9.95       1.22
C       3.48      10.61       2.39
C       5.26       9.95       0.76
O       6.12      10.48       1.54
O       5.51       9.40      -0.37
O       2.69      12.04       4.70
O       0.56      11.44       4.43
H       0.15       9.92       2.49
H       0.75       8.71       0.39
H       3.11       8.77      -0.43
H       4.24      11.16       2.95
C       1.81      11.40       4.06
C       2.15      10.61       2.85
C       1.17       9.91       2.13
