40

H       6.84       2.54      17.90
H       1.53       9.85      20.33
O       2.84       4.03      21.80
O       3.21       6.94      15.29
H       6.15       4.49      16.72
O       1.57       5.87      21.68
H       2.61       7.98      21.39
O       4.48       5.10      15.40
O       5.13       1.30      21.26
O       7.03       1.04      20.05
O       1.55      10.76      16.66
O      -0.10      10.73      18.20
H       7.31       0.45      20.82
H      -0.56      11.38      17.57
H       2.00       3.01      19.74
H       3.02       1.56      19.46
H       2.75       2.72      18.13
H       0.13       8.00      16.79
H       1.31       8.23      15.55
H       1.05       6.57      16.31
C       4.55       5.08      18.12
C       2.98       6.89      19.53
C       2.57       5.18      21.31
C       4.05       6.20      15.96
C       3.85       6.11      17.41
C       3.27       5.63      20.10
C       5.60       4.26      17.60
C       2.53       7.98      20.31
C       6.01       3.12      18.28
C       1.94       9.08      19.71
C       5.31       2.71      19.40
C       1.79       9.13      18.32
C       4.12       3.36      19.67
C       2.14       8.01      17.56
C       4.04       4.72      19.36
C       2.99       7.01      18.13
C       5.78       1.63      20.28
C       1.10      10.28      17.69
C       2.90       2.62      19.23
C       1.12       7.66      16.48
