40

O       3.21       6.94      12.52
O       2.84       4.02       6.02
H      -0.59       8.49       8.75
H       6.90       2.74       9.52
H      -0.01       6.41       7.69
O       4.48       5.10      12.41
O       1.57       5.86       6.13
H       6.08       4.61      10.81
O       1.63      10.62      11.04
O      -0.57      10.09      10.85
O       4.92       1.00       6.59
O       6.87       0.89       7.74
H      -0.72      10.91      11.43
H       7.09       0.13       7.10
H       4.49       8.62       9.89
H       3.30       9.83       9.22
H       3.69       8.37       8.32
H       3.33       0.89       8.91
H       1.98       2.06       9.17
H       3.35       2.05      10.26
C       1.85       6.10       8.81
C       4.19       4.81       9.73
C       4.02       6.17      11.83
C       2.02       4.77       6.71
C       2.37       4.97       8.13
C       3.67       5.93      10.42
C       0.67       6.79       8.44
C       5.44       4.22      10.05
C       0.31       7.99       9.04
C       5.93       3.15       9.30
C       1.19       8.60       9.93
C       5.13       2.59       8.31
C       2.47       8.03      10.06
C       3.77       2.92       8.34
C       2.59       6.65       9.86
C       3.46       4.25       8.69
C       0.79       9.84      10.63
C       5.61       1.45       7.49
C       3.55       8.77       9.35
C       3.06       1.92       9.20
