14

O       3.80       9.67      12.41
O       8.28      12.22       6.13
C       7.09      10.93       7.78
C       4.99      10.99      10.80
C       6.02      11.08       8.57
C       6.09      10.87      10.01
H       7.02      10.50      10.42
H       5.12      11.53       8.19
C       4.92      10.19      12.02
C       7.16      11.71       6.53
H       4.09      11.45      10.42
H       7.98      10.42       8.14
O       6.06       9.86      12.51
O       6.02      12.03       6.04
