86

Zn       6.81       4.98      11.48
Zn       3.77       4.69      11.79
H       3.39       8.08      21.24
H       6.13       2.46      14.61
H       4.15       6.62       4.96
H       6.44       3.09      18.32
H       3.48       0.65      11.77
H       7.10       9.02      11.50
H       8.11       3.37      13.11
H       2.47       6.30      10.16
H       7.21       1.65       2.02
H       1.61       7.15       2.25
H       8.99       2.58      21.01
H       5.14       2.46       5.05
H       5.45       7.25      18.21
H       5.60       2.18       8.78
H       4.96       7.49      14.48
H       4.45       7.22       8.68
C       5.09       7.35      11.66
C       6.06       3.88      16.35
C       4.41       5.74       5.54
C       6.18       3.96      17.74
C       4.63       4.53       4.87
C       5.96       5.18      18.40
C       4.99       8.74      11.68
C       5.59       0.93      11.59
C       5.05       4.71       9.08
C       5.53       4.96      14.20
C       7.27       4.89      20.40
C       5.49       2.33      11.61
C       3.33       4.83       2.87
C       5.02       5.67      20.56
C       5.58       4.05       2.71
C       5.16       5.89      21.94
C       5.44       3.84       1.33
C       6.33       5.40      22.57
C       4.27       4.33       0.70
C       7.38       4.83      21.80
C       3.23       4.90       1.47
C       4.17       6.57      22.70
C       4.99       3.38       5.58
C       6.44       3.16       0.57
C       2.11       5.51       0.83
C       8.49       4.22      22.44
C       3.11       7.36      22.00
C       7.49       2.38       1.26
C       1.20       6.39       1.60
C       9.41       3.34      21.66
C       5.56       2.20       7.70
C       5.01       7.48      15.56
C       4.26       7.10       7.62
C       5.60       6.32      17.68
C       6.32       2.58      15.67
C       9.15       3.57      12.95
C       1.43       6.11      10.32
C       5.15       3.43       6.97
C       5.43       6.26      16.29
C       4.91       4.65       7.64
C       5.67       5.03      15.63
C       4.53       5.81       6.93
N       6.09       5.25      19.82
N       4.51       4.47       3.45
N       1.76       4.50      12.00
N       8.82       5.18      11.28
O       6.28       6.87      11.55
O       2.26       5.08       3.65
O       3.83       5.85      19.95
O       6.77       3.87       3.33
O       9.80       7.16      22.23
O       0.80       2.58       1.05
O       7.86       6.24       1.57
O       2.74       3.49      21.70
O       5.87       1.19       7.09
O       4.71       8.50      16.15
O       3.82       8.06       7.00
O       4.30       2.81      11.72
O       6.77       1.62      16.29
O       2.07       2.94      13.63
O       8.51       6.73       9.65
O       4.01       6.65      11.78
O       6.57       3.03      11.49
O       6.24       4.85       9.57
O       4.34       4.82      13.70
O       3.97       4.63       9.80
O       6.61       5.04      13.47
O       8.33       4.64      19.61
