131

Cr       4.48       3.80       9.33
Cr       2.73       6.75       9.32
Cr       1.05       3.76       9.41
Cr      -4.43       8.95      18.54
Cr      -1.02       8.91       0.10
Cr      -2.73       5.98      18.68
H      -0.28       8.59       3.93
H      -0.17       4.10       5.55
H      -2.35       5.46       4.06
H      -2.04       5.47       6.32
H       0.60       1.13       3.52
H       0.69       2.12       5.87
H       3.47       2.17       3.57
H       3.59       1.16       5.65
H       6.18       4.91       5.81
H       1.27       7.83       3.45
H       3.30       5.79       5.29
H       0.21       4.24      15.86
H       0.49       7.21      15.09
H      -0.72       9.21      14.75
H       4.94       0.89      12.54
H       2.25       1.51      14.91
H       1.87       1.00      12.79
H      -4.69       8.70      14.73
H       1.79       7.42       5.63
H       5.25       8.50      12.49
H       5.90       5.62      14.73
H       6.55       5.71      12.61
H       0.36       8.37       6.10
H      -2.42       7.24       4.10
H      -1.87       7.26       6.34
H       1.47       5.40       3.40
H       1.52       4.62       5.56
H       6.18       1.26       2.52
H       7.86       1.91       2.66
H       7.21       0.82       3.93
H       7.18       3.11       4.77
H       5.49       2.53       4.54
H       5.50       3.72       2.24
H       7.15       4.31       2.69
H       9.79       0.67       5.02
H       3.59       8.90       6.03
H      10.56       0.17       6.59
H       5.75       7.56       5.72
H      -4.63       8.69       4.57
H       4.40       8.50       3.11
H       3.56       7.41       4.08
H      -0.79       1.80      13.24
H       3.46       7.06      14.95
H       0.16       2.79       1.38
C       4.19       5.82       7.28
C       0.44       5.18       3.77
C      -0.44       6.44       3.52
C       0.02       6.19       6.07
C      -1.50       6.33       5.86
C       0.51       4.94       5.27
C       2.70       1.59       6.11
C       2.58       1.70       3.17
C       1.52       1.51       3.95
C       1.59       1.77       5.39
C       4.19       5.60       5.85
C       0.38       5.94       7.47
C       5.28       6.45       3.12
C       5.50       5.25       3.77
C       5.30       5.17       5.23
C       1.20       5.66      12.91
C       0.33       6.33      15.71
C       0.46       5.09      15.22
C       0.51       4.85      13.77
C       2.86       1.21      12.38
C       3.03       0.82      15.23
C       3.94       0.33      14.39
C       2.83       2.19       7.43
C       3.97       0.78      13.00
C       5.93       6.52      12.23
C       6.05       6.62      15.11
C       6.14       7.71      14.31
C       5.80       7.66      12.90
C       2.71       1.00       1.89
C      -0.77       6.57       2.10
C       5.81       6.74       1.76
C       3.04       0.43      16.62
C      -0.38       6.56      16.94
C       5.05       6.22      11.13
C       6.16       6.83      16.53
C       1.08       5.56      11.43
C       2.95       2.12      11.26
C       0.35       7.68       4.04
C       0.70       7.48       5.52
C      -1.78       6.36       4.34
C       6.15       4.04       3.08
C       6.42       2.83       4.01
C       6.95       1.63       3.23
C       4.59       7.66       3.80
C       5.39       8.27       4.97
C       4.55       9.33       5.69
C      -0.41       3.78      13.33
C       2.22       6.61      13.43
C      -0.03       3.94       3.02
O       4.01       2.45       7.85
O       1.42       6.63      10.75
O       0.15       4.81      10.92
O       1.88       2.66      10.81
O       2.75       4.77       9.35
O       5.47       7.86       1.27
O       1.69       0.52       1.28
O       3.89       0.73       1.56
O      -0.54       7.67       1.54
O      -1.46       5.65       1.58
O       6.77       6.05       1.26
O       5.00       5.03       7.89
O       5.69       7.91      16.97
O       1.89       0.57      17.20
O       4.11       0.78      17.26
O      -0.33       7.73      17.46
O      -1.24       5.70      17.29
O       6.98       6.10      17.18
O      -2.72       7.96      18.67
O       4.06       7.04       7.78
O       1.33       6.62       7.96
O       0.05       4.80       7.91
O       1.79       2.65       8.01
O       4.10       2.46      10.86
O       5.09       5.04      10.69
O       4.15       7.05      10.79
O      -1.51       4.07      12.87
O      -0.07       2.44      13.55
O       2.34       7.73      12.95
O       3.00       6.26      14.54
O      -1.02       3.32       3.40
O       0.61       3.57       1.84
