18

O       1.83       4.80       6.32
In       0.00       5.57       5.57
H      -1.82       7.01       4.13
O       0.73       7.63       5.73
In       3.67       5.57       5.57
O       3.00       7.69       5.74
O      -1.83       6.32       4.80
O       4.33       5.74       7.69
O      -0.73       5.73       7.63
C       1.85       8.23       5.84
C       1.85       5.30       2.91
O       4.33       3.45       5.40
O      -0.73       3.51       5.41
O       3.00       5.40       3.45
O       0.73       5.41       3.51
C      -1.85       2.91       5.30
C      -1.85       5.84       8.23
H       1.82       4.13       7.01
