924

H      53.27      51.07      37.36
H      54.62      52.61      36.15
H      52.24      54.15      40.08
H       0.10       2.18      33.09
H      55.94      54.13      32.84
H      55.84      54.28      30.46
H       0.04       2.32      30.71
H       1.57       3.20      36.85
H       4.05       0.59      40.11
H       2.48      55.67      38.70
H       3.17       4.29      38.26
H      54.47      54.79      34.75
H       1.57       1.28      34.97
H      56.09      55.82      38.48
H      53.58      55.68      38.85
H       5.49       2.61      40.44
H      55.25       1.01      28.63
H      51.85      50.57      39.26
H      53.35       4.97      19.72
H      54.70       3.42      20.92
H      52.20       1.90      17.05
H       0.19      53.86      23.99
H       0.07       1.92      24.16
H       0.25       1.83      26.54
H       0.37      53.77      26.36
H       1.58      52.78      20.18
H       4.01      55.38      16.87
H       2.43       0.30      18.29
H       3.17      51.69      18.76
H      54.57       1.26      22.34
H       1.62      54.72      22.04
H      56.05       0.17      18.57
H      53.54       0.35      18.26
H       5.47      53.37      16.57
H       1.10      55.11      28.42
H      51.89       5.49      17.86
H      51.05      36.77      53.78
H      52.58      35.57      55.16
H      54.14      39.44      52.69
H       2.16      32.55       0.67
H      54.11      32.28       0.40
H      54.26      29.90       0.32
H       2.31      30.16       0.63
H       3.18      36.38       2.08
H       0.53      39.66       4.47
H      55.62      38.16       2.98
H       4.26      37.87       3.61
H      54.76      34.16      55.03
H       1.26      34.45       2.13
H      55.78      37.92       0.43
H      55.66      38.24      54.06
H       2.49      40.38       5.65
H       1.02      28.08      55.86
H      50.61      38.56      52.18
H       5.00      19.22      53.87
H       3.45      20.39      55.24
H       1.92      16.58      52.67
H      53.87      23.42       0.78
H       1.93      23.62       0.68
H       1.83      25.99       0.88
H      53.77      25.80       0.98
H      52.80      19.55       2.11
H      55.44      16.20       4.43
H       0.35      17.70       2.93
H      51.72      18.05       3.64
H       1.29      21.82      55.14
H      54.73      21.45       2.20
H       0.20      18.02       0.40
H       0.37      17.77      54.03
H      53.50      15.54       5.66
H      55.10      27.86       1.72
H       5.46      17.46      52.23
H      36.77      53.22      51.60
H      35.58      54.61      53.12
H      39.44      52.13      54.69
H      32.55       0.13       2.72
H      32.28      55.99      54.66
H      29.91      55.91      54.82
H      30.16       0.09       2.87
H      36.39       1.52       3.74
H      39.68       3.90       1.08
H      38.16       2.42       0.01
H      37.90       3.03       4.82
H      34.17      54.49      55.31
H      34.45       1.58       1.82
H      37.92      56.04       0.18
H      38.23      53.51       0.06
H      40.47       5.00       3.03
H      28.08      55.32       1.57
H      38.55      51.61      51.17
H      19.22      53.30       5.54
H      20.40      54.68       4.00
H      16.58      52.11       2.46
H      23.43       0.21      54.42
H      23.61       0.11       2.49
H      25.99       0.31       2.39
H      25.80       0.41      54.31
H      19.54       1.54      53.35
H      16.20       3.86      56.00
H      17.71       2.37       0.92
H      18.03       3.05      52.27
H      21.82      54.59       1.83
H      21.45       1.63      55.28
H      18.02      56.00       0.76
H      17.77      53.48       0.92
H      15.49       5.04      54.05
H      27.86       1.15      55.65
H      17.47      51.66       6.00
H      40.34      51.17      49.62
H      42.09      50.03      48.45
H      42.12      50.11      53.31
H      50.52      47.98      42.98
H      48.46      51.51      44.08
H      49.60      52.71      42.34
H      51.65      49.18      41.25
H      51.58      43.85      49.49
H      49.07      40.36      51.75
H      47.89      42.11      50.62
H      52.75      42.09      50.62
H      46.19      49.23      46.86
H      49.23      46.31      46.74
H      46.31      46.19      49.79
H      43.88      48.98      52.14
H      14.95       3.92      49.84
H      13.28       5.05      48.54
H      14.56       6.81      52.88
H       4.70       7.61      43.67
H       8.16       5.21      43.20
H       7.05       3.95      41.51
H       3.59       6.32      41.98
H       4.53      12.17      49.52
H       7.01      15.68      51.78
H       8.21      13.95      50.64
H       3.35      13.91      50.66
H       9.81       6.86      46.64
H       6.80       9.83      46.72
H       9.82       9.82      49.66
H      12.88       7.94      51.61
H      40.92       3.94       7.26
H      42.60       5.08       8.56
H      41.35       6.82       4.20
H      50.52       8.12      14.18
H      48.46       4.59      13.05
H      49.62       3.38      14.77
H      51.67       6.90      15.88
H      51.03      12.92       8.53
H      49.31      14.91       4.45
H      48.01      13.25       5.59
H      52.31      14.59       7.41
H      46.10       6.84      10.42
H      49.10       9.82      10.39
H      46.05       9.85       7.46
H      43.03       7.94       5.46
H      15.70      51.20       7.56
H      13.97      50.06       8.75
H      13.88      50.15       3.89
H       4.71      48.36      13.35
H       8.16      50.78      13.81
H       7.04      52.04      15.49
H       3.60      49.64      15.04
H       4.95      42.99       8.52
H       6.67      40.99       4.44
H       7.96      42.67       5.56
H       3.68      41.31       7.41
H       9.78      49.15      10.34
H       6.87      46.09      10.36
H       9.86      46.13       7.38
H      12.14      49.01       5.08
H      49.27      51.07      13.36
H      50.62      52.61      12.15
H      48.23      54.15      16.08
H      52.25       2.18       9.09
H      51.94      54.13       8.84
H      51.84      54.28       6.46
H      52.19       2.32       6.71
H      53.73       3.20      12.85
H       0.05       0.59      16.11
H      54.63      55.67      14.70
H      55.33       4.29      14.26
H      50.47      54.79      10.75
H      53.73       1.28      10.97
H      52.09      55.82      14.48
H      49.57      55.68      14.85
H       1.49       2.61      16.44
H      51.25       1.01       4.63
H      47.85      50.57      15.26
H      49.35       4.97      51.87
H      50.70       3.42      53.07
H      48.21       1.90      49.19
H      52.35      53.86      56.14
H      52.22       1.92       0.16
H      52.40       1.83       2.54
H      52.52      53.77       2.36
H      53.73      52.78      52.33
H       0.01      55.38      49.02
H      54.59       0.30      50.44
H      55.33      51.69      50.91
H      50.57       1.26      54.49
H      53.78      54.72      54.19
H      52.05       0.17      50.72
H      49.54       0.35      50.41
H       1.47      53.37      48.72
H      53.26      55.11       4.42
H      47.89       5.49      50.01
H      47.05      36.77      29.78
H      48.57      35.57      31.16
H      50.14      39.44      28.69
H      54.32      32.55      32.82
H      50.11      32.28      32.55
H      50.27      29.90      32.47
H      54.47      30.16      32.78
H      55.34      36.38      34.23
H      52.69      39.66      36.62
H      51.62      38.16      35.13
H       0.27      37.87      35.76
H      50.76      34.16      31.03
H      53.42      34.45      34.28
H      51.79      37.92      32.58
H      51.66      38.24      30.06
H      54.64      40.38      37.80
H      53.17      28.08      31.86
H      46.61      38.56      28.18
H       1.00      19.22      29.87
H      55.61      20.39      31.24
H      54.07      16.58      28.67
H      49.87      23.42      32.93
H      54.09      23.62      32.83
H      53.99      25.99      33.03
H      49.77      25.80      33.13
H      48.80      19.55      34.26
H      51.45      16.20      36.58
H      52.51      17.70      35.08
H      47.73      18.05      35.79
H      53.44      21.82      31.14
H      50.73      21.45      34.35
H      52.36      18.02      32.55
H      52.53      17.77      30.03
H      49.50      15.54      37.81
H      51.10      27.86      33.87
H       1.46      17.46      28.23
H      32.77      53.22      27.60
H      31.57      54.61      29.12
H      35.44      52.13      30.69
H      28.55       0.13      34.87
H      28.28      55.99      30.66
H      25.90      55.92      30.82
H      26.17       0.09      35.02
H      32.39       1.52      35.89
H      35.68       3.90      33.22
H      34.17       2.42      32.16
H      33.91       3.03      36.96
H      30.17      54.49      31.31
H      30.45       1.58      33.96
H      33.93      56.04      32.33
H      34.23      53.51      32.21
H      36.48       5.00      35.18
H      24.08      55.32      33.72
H      34.55      51.61      27.17
H      15.22      53.30      37.69
H      16.40      54.68      36.15
H      12.58      52.11      34.61
H      19.42       0.21      30.42
H      19.62       0.11      34.64
H      21.99       0.31      34.53
H      21.80       0.41      30.31
H      15.54       1.54      29.35
H      12.20       3.86      32.00
H      13.71       2.37      33.06
H      14.03       3.05      28.27
H      17.82      54.59      33.98
H      17.45       1.63      31.28
H      14.02      56.00      32.90
H      13.77      53.48      33.07
H      11.48       5.04      30.05
H      23.86       1.15      31.65
H      13.47      51.66      38.15
H      36.34      51.17      25.62
H      38.09      50.03      24.45
H      38.12      50.11      29.31
H      46.51      47.98      18.98
H      44.46      51.51      20.08
H      45.60      52.71      18.34
H      47.65      49.18      17.25
H      47.58      43.85      25.49
H      45.07      40.36      27.75
H      43.89      42.11      26.62
H      48.75      42.09      26.62
H      42.19      49.23      22.86
H      45.23      46.31      22.74
H      42.31      46.19      25.79
H      39.87      48.98      28.14
H      10.95       3.92      25.84
H       9.28       5.05      24.54
H      10.56       6.82      28.88
H       0.70       7.61      19.67
H       4.16       5.21      19.20
H       3.05       3.95      17.51
H      55.75       6.32      17.98
H       0.53      12.17      25.52
H       3.01      15.68      27.78
H       4.21      13.95      26.64
H      55.50      13.91      26.66
H       5.80       6.86      22.64
H       2.79       9.83      22.72
H       5.82       9.82      25.66
H       8.88       7.94      27.61
H      36.93       3.94      39.41
H      38.60       5.08      40.71
H      37.36       6.82      36.34
H      46.53       8.12      46.32
H      44.46       4.59      45.20
H      45.62       3.38      46.92
H      47.67       6.90      48.03
H      47.04      12.92      40.68
H      45.31      14.91      36.60
H      44.01      13.24      37.74
H      48.31      14.59      39.56
H      42.11       6.84      42.57
H      45.10       9.82      42.54
H      42.05       9.85      39.61
H      39.03       7.94      37.61
H      11.70      51.20      39.71
H       9.97      50.06      40.90
H       9.88      50.15      36.04
H       0.72      48.36      45.50
H       4.16      50.78      45.96
H       3.04      52.04      47.64
H      55.75      49.64      47.19
H       0.95      42.99      40.67
H       2.67      40.99      36.59
H       3.96      42.67      37.71
H      55.84      41.31      39.56
H       5.78      49.15      42.48
H       2.87      46.09      42.51
H       5.87      46.13      39.53
H       8.14      49.01      37.23
C      56.11       0.06      33.21
C      54.23      54.30      37.37
C       1.86       1.25      37.64
C      53.51      54.71      38.52
C      52.71      53.81      39.24
C      52.61      52.45      38.85
C      53.30      52.05      37.68
C      54.09      52.95      36.95
C      56.00      55.06      32.41
C      55.96      55.14      31.00
C      56.04       0.23      30.35
C      56.15       1.40      31.15
C       0.04       1.31      32.55
C       2.10       2.64      37.52
C       3.03       3.28      38.36
C       3.76       2.55      39.33
C       3.54       1.16      39.43
C       2.61       0.52      38.60
C       0.88       0.59      36.84
C       0.86       0.70      35.43
C      56.10      56.14      34.64
C      55.16      55.30      35.30
C      55.13      55.18      36.71
C      56.08      55.91      37.46
C       4.69       3.14      40.17
C      55.90       0.35      28.97
C      51.91      51.50      39.59
C       0.10      55.98      23.83
C      54.25       1.72      19.72
C       1.84      54.73      19.37
C      53.50       1.32      18.59
C      52.71       2.24      17.87
C      52.64       3.60      18.26
C      53.36       3.99      19.41
C      54.14       3.07      20.13
C       0.10       1.00      24.61
C       0.21       0.95      26.02
C       0.30      55.87      26.69
C       0.30      54.69      25.91
C       0.20      54.74      24.51
C       2.09      53.34      19.49
C       3.02      52.69      18.65
C       3.74      53.42      17.67
C       3.50      54.81      17.56
C       2.57      55.45      18.39
C       0.88      55.39      20.18
C       0.90      55.29      21.59
C       0.01      56.04      22.41
C      55.23       0.73      21.77
C      55.15       0.83      20.36
C      56.07       0.07      19.59
C       4.68      52.83      16.84
C       0.45      55.78      28.08
C      51.94       4.55      17.52
C       0.04      32.66       0.55
C      54.27      36.78      54.74
C       1.22      37.12       2.38
C      54.69      37.91      54.00
C      53.79      38.62      53.19
C      52.43      38.23      53.09
C      52.02      37.08      53.81
C      52.93      36.37      54.62
C      55.04      31.85       0.45
C      55.13      30.44       0.43
C       0.23      29.80       0.50
C       1.39      30.60       0.60
C       1.30      32.00       0.63
C       2.61      37.05       2.60
C       3.25      37.94       3.49
C       2.51      38.93       4.19
C       1.11      38.97       3.99
C       0.48      38.09       3.10
C       0.57      36.30       1.41
C       0.69      34.89       1.42
C      56.11      34.09       0.51
C      55.27      34.73      55.72
C      55.16      36.14      55.66
C      55.88      36.90       0.44
C       3.09      39.85       5.06
C       0.34      28.41       0.37
C      51.50      38.96      52.35
C      55.99      23.28       0.70
C       1.76      19.20      54.77
C      54.76      18.77       2.37
C       1.35      18.09      54.00
C       2.26      17.39      53.19
C       3.62      17.77      53.13
C       4.02      18.91      53.87
C       3.11      19.61      54.68
C       1.01      24.06       0.72
C       0.95      25.46       0.84
C      55.86      26.14       0.92
C      54.69      25.35       0.91
C      54.75      23.95       0.80
C      53.37      18.86       2.61
C      52.73      17.97       3.50
C      53.47      16.97       4.18
C      54.87      16.90       3.95
C      55.50      17.79       3.06
C      55.41      19.61       1.41
C      55.30      21.02       1.46
C      56.05      21.85       0.59
C       0.75      21.24      55.79
C       0.86      19.83      55.69
C       0.10      19.04       0.44
C      52.89      16.06       5.06
C      55.77      27.52       1.07
C       4.57      17.05      52.40
C      32.66      56.16       0.60
C      36.78      54.19      54.82
C      37.13       1.82       1.77
C      37.91      53.45      55.24
C      38.62      52.63      54.35
C      38.23      52.53      52.99
C      37.08      53.25      52.57
C      36.37      54.06      53.48
C      31.85      56.05      55.59
C      30.45      56.03      55.68
C      29.80      56.10       0.78
C      30.60       0.05       1.94
C      32.00       0.09       1.85
C      37.06       2.04       3.16
C      37.96       2.92       3.80
C      38.95       3.61       3.06
C      38.98       3.42       1.66
C      38.09       2.54       1.02
C      36.30       0.85       1.12
C      34.90       0.86       1.24
C      34.09      56.12       0.51
C      34.73      55.17      55.82
C      36.14      55.11      55.70
C      36.90      56.05       0.28
C      39.89       4.46       3.64
C      28.42      55.97       0.90
C      38.96      51.79      52.06
C      23.28       0.13       0.39
C      19.21      54.21       2.30
C      18.78       1.80      55.31
C      18.09      53.44       1.89
C      17.39      52.64       2.80
C      17.77      52.57       4.17
C      18.91      53.31       4.57
C      19.62      54.12       3.65
C      24.06       0.15       1.57
C      25.46       0.27       1.51
C      26.13       0.36       0.26
C      25.36       0.34      55.23
C      23.95       0.23      55.29
C      18.86       2.04      53.92
C      17.96       2.92      53.28
C      16.96       3.60      54.02
C      16.91       3.39      55.42
C      17.80       2.50      56.05
C      19.62       0.85      55.96
C      21.02       0.90      55.85
C      21.85       0.03       0.45
C      21.24      55.24       1.30
C      19.83      55.14       1.41
C      19.04      56.03       0.66
C      16.03       4.47      53.45
C      27.52       0.51       0.17
C      17.06      51.84       5.11
C      49.37      49.63      43.68
C      43.14      49.39      50.18
C      49.63      43.13      49.94
C      43.13      49.42      51.60
C      42.10      50.08      52.28
C      41.05      50.72      51.58
C      41.06      50.68      50.16
C      42.10      50.02      49.47
C      49.12      51.00      43.48
C      49.78      51.71      42.46
C      50.70      51.05      41.61
C      50.95      49.67      41.82
C      50.30      48.97      42.84
C      51.04      43.11      49.95
C      51.73      42.08      50.61
C      51.03      41.05      51.27
C      49.61      41.07      51.25
C      48.92      42.11      50.59
C      47.84      46.08      48.33
C      48.38      46.69      47.18
C      47.78      47.84      46.63
C      46.62      48.38      47.24
C      46.08      47.78      48.40
C      46.69      46.63      48.94
C      49.00      44.12      49.36
C      48.43      45.04      48.86
C      44.12      48.81      49.55
C      45.04      48.31      48.99
C      48.30      48.43      45.59
C      48.80      48.99      44.66
C       6.54       6.53      43.59
C      12.93       6.60      49.96
C       6.48      12.90      49.96
C      13.32       7.10      51.22
C      14.30       6.43      51.97
C      14.91       5.24      51.49
C      14.53       4.77      50.21
C      13.55       5.44      49.45
C       7.20       5.46      42.95
C       6.55       4.72      41.95
C       5.21       5.01      41.58
C       4.56       6.09      42.21
C       5.21       6.84      43.21
C       5.07      12.91      49.98
C       4.37      13.93      50.65
C       5.07      14.97      51.31
C       6.48      14.96      51.29
C       7.18      13.94      50.62
C       8.24       9.99      48.26
C       7.66       9.42      47.11
C       8.23       8.28      46.51
C       9.40       7.71      47.07
C       9.99       8.28      48.22
C       9.41       9.42      48.81
C       7.12      11.93      49.37
C       7.68      11.02      48.84
C      11.96       7.18      49.30
C      11.03       7.71      48.76
C       7.66       7.72      45.48
C       7.12       7.18      44.56
C      49.37       6.47      13.47
C      42.97       6.61       7.13
C      49.40      12.93       7.17
C      42.59       7.11       5.86
C      41.60       6.44       5.11
C      40.99       5.26       5.60
C      41.35       4.80       6.88
C      42.33       5.46       7.64
C      49.12       5.10      13.66
C      49.80       4.38      14.66
C      50.72       5.03      15.51
C      50.97       6.41      15.32
C      50.31       7.13      14.30
C      50.65      13.34       7.68
C      51.41      14.32       7.01
C      50.94      14.90       5.81
C      49.67      14.51       5.32
C      48.91      13.53       5.99
C      47.64      10.01       8.86
C      48.24       9.42       9.99
C      47.67       8.26      10.57
C      46.50       7.70      10.01
C      45.90       8.28       8.88
C      46.47       9.44       8.30
C      48.74      11.97       7.76
C      48.19      11.05       8.29
C      43.93       7.20       7.79
C      44.86       7.72       8.33
C      48.25       7.69      11.59
C      48.78       7.12      12.50
C       6.54      49.45      13.43
C      12.90      49.42       7.03
C       6.57      42.99       7.15
C      12.89      49.45       5.61
C      13.91      50.13       4.92
C      14.97      50.76       5.61
C      14.97      50.72       7.03
C      13.95      50.05       7.73
C       7.20      50.52      14.07
C       6.54      51.27      15.06
C       5.20      50.97      15.43
C       4.56      49.88      14.80
C       5.22      49.13      13.81
C       5.33      42.57       7.67
C       4.58      41.58       7.01
C       5.05      41.00       5.80
C       6.31      41.39       5.31
C       7.07      42.38       5.97
C       8.30      45.94       8.80
C       7.71      46.52       9.95
C       8.25      47.69      10.52
C       9.40      48.29       9.94
C       9.99      47.71       8.79
C       9.44      46.54       8.23
C       7.23      43.96       7.72
C       7.76      44.89       8.25
C      11.93      48.82       7.67
C      11.02      48.29       8.22
C       7.67      48.25      11.55
C       7.13      48.80      12.46
C      52.11       0.06       9.21
C      50.23      54.30      13.37
C      54.02       1.25      13.64
C      49.51      54.71      14.52
C      48.71      53.81      15.24
C      48.61      52.45      14.85
C      49.30      52.05      13.68
C      50.09      52.95      12.95
C      52.00      55.06       8.41
C      51.96      55.14       7.00
C      52.03       0.23       6.35
C      52.15       1.40       7.15
C      52.20       1.31       8.55
C      54.26       2.64      13.52
C      55.19       3.28      14.36
C      55.92       2.55      15.33
C      55.70       1.16      15.43
C      54.76       0.52      14.60
C      53.03       0.59      12.84
C      53.01       0.70      11.43
C      52.09      56.14      10.64
C      51.16      55.30      11.30
C      51.13      55.18      12.71
C      52.08      55.91      13.46
C       0.69       3.14      16.17
C      51.90       0.35       4.97
C      47.90      51.50      15.59
C      52.26      55.98      55.98
C      50.25       1.72      51.87
C      54.00      54.73      51.52
C      49.50       1.32      50.74
C      48.71       2.24      50.02
C      48.64       3.60      50.41
C      49.36       3.99      51.56
C      50.15       3.07      52.28
C      52.26       1.00       0.61
C      52.37       0.95       2.02
C      52.46      55.87       2.69
C      52.45      54.69       1.91
C      52.35      54.74       0.51
C      54.25      53.34      51.64
C      55.18      52.69      50.80
C      55.89      53.42      49.82
C      55.66      54.81      49.71
C      54.73      55.45      50.54
C      53.03      55.39      52.33
C      53.06      55.29      53.74
C      52.17      56.04      54.56
C      51.23       0.73      53.92
C      51.16       0.83      52.51
C      52.07       0.07      51.74
C       0.68      52.83      48.99
C      52.61      55.78       4.08
C      47.94       4.55      49.67
C      52.20      32.66      32.70
C      50.27      36.78      30.74
C      53.38      37.12      34.53
C      50.69      37.91      30.00
C      49.79      38.62      29.19
C      48.43      38.23      29.09
C      48.02      37.08      29.81
C      48.92      36.37      30.62
C      51.04      31.85      32.60
C      51.13      30.44      32.58
C      52.38      29.80      32.65
C      53.55      30.60      32.75
C      53.45      32.00      32.78
C      54.77      37.05      34.75
C      55.41      37.94      35.64
C      54.67      38.93      36.34
C      53.27      38.97      36.14
C      52.63      38.09      35.25
C      52.73      36.30      33.56
C      52.85      34.89      33.57
C      52.11      34.09      32.66
C      51.27      34.73      31.72
C      51.15      36.14      31.66
C      51.89      36.90      32.59
C      55.25      39.85      37.21
C      52.50      28.41      32.52
C      47.50      38.96      28.35
C      51.99      23.28      32.85
C      53.91      19.20      30.77
C      50.76      18.77      34.52
C      53.50      18.09      30.00
C      54.41      17.39      29.19
C      55.78      17.77      29.13
C       0.02      18.91      29.87
C      55.26      19.61      30.68
C      53.17      24.06      32.87
C      53.11      25.46      32.99
C      51.87      26.14      33.07
C      50.69      25.35      33.06
C      50.75      23.95      32.95
C      49.37      18.86      34.76
C      48.74      17.97      35.65
C      49.47      16.97      36.33
C      50.87      16.90      36.10
C      51.50      17.79      35.21
C      51.42      19.61      33.56
C      51.31      21.02      33.61
C      52.06      21.85      32.74
C      52.91      21.24      31.79
C      53.01      19.83      31.69
C      52.26      19.04      32.59
C      48.90      16.06      37.21
C      51.78      27.52      33.22
C       0.57      17.05      28.40
C      28.66      56.16      32.75
C      32.78      54.19      30.82
C      33.13       1.82      33.92
C      33.91      53.45      31.24
C      34.62      52.63      30.35
C      34.23      52.53      28.99
C      33.08      53.25      28.57
C      32.37      54.06      29.48
C      27.85      56.05      31.59
C      26.45      56.03      31.68
C      25.80      56.10      32.93
C      26.60       0.05      34.09
C      28.00       0.09      34.00
C      33.06       2.04      35.31
C      33.97       2.92      35.95
C      34.95       3.61      35.21
C      34.99       3.42      33.81
C      34.09       2.54      33.17
C      32.31       0.85      33.27
C      30.90       0.86      33.39
C      30.09      56.12      32.66
C      30.73      55.17      31.82
C      32.14      55.11      31.70
C      32.91      56.05      32.43
C      35.89       4.46      35.79
C      24.42      55.97      33.05
C      34.95      51.79      28.06
C      19.28       0.13      32.54
C      15.21      54.21      34.45
C      14.77       1.80      31.31
C      14.09      53.44      34.04
C      13.39      52.64      34.95
C      13.78      52.57      36.32
C      14.92      53.31      36.72
C      15.62      54.12      35.80
C      20.06       0.15      33.71
C      21.47       0.27      33.66
C      22.14       0.36      32.41
C      21.35       0.34      31.23
C      19.95       0.23      31.29
C      14.85       2.04      29.92
C      13.95       2.92      29.28
C      12.96       3.60      30.02
C      12.90       3.39      31.42
C      13.79       2.50      32.05
C      15.61       0.85      31.96
C      17.02       0.90      31.85
C      17.85       0.03      32.60
C      17.24      55.24      33.45
C      15.83      55.14      33.56
C      15.04      56.03      32.81
C      12.03       4.47      29.45
C      23.52       0.51      32.32
C      13.06      51.84      37.26
C      45.37      49.63      19.68
C      39.13      49.39      26.18
C      45.63      43.13      25.94
C      39.12      49.42      27.60
C      38.09      50.08      28.28
C      37.05      50.72      27.58
C      37.06      50.69      26.16
C      38.09      50.02      25.47
C      45.11      51.00      19.48
C      45.78      51.71      18.46
C      46.70      51.05      17.61
C      46.95      49.67      17.82
C      46.29      48.97      18.84
C      47.04      43.11      25.95
C      47.73      42.08      26.61
C      47.02      41.05      27.27
C      45.61      41.07      27.25
C      44.92      42.11      26.59
C      43.84      46.08      24.33
C      44.38      46.69      23.18
C      43.77      47.84      22.63
C      42.62      48.38      23.24
C      42.08      47.78      24.40
C      42.69      46.63      24.94
C      44.99      44.12      25.36
C      44.43      45.04      24.86
C      40.12      48.81      25.55
C      41.04      48.31      24.99
C      44.30      48.43      21.59
C      44.80      48.99      20.66
C       2.53       6.53      19.59
C       8.92       6.60      25.96
C       2.48      12.90      25.96
C       9.32       7.10      27.22
C      10.30       6.43      27.97
C      10.90       5.24      27.49
C      10.53       4.77      26.21
C       9.55       5.44      25.45
C       3.20       5.47      18.95
C       2.54       4.72      17.95
C       1.21       5.01      17.58
C       0.56       6.09      18.21
C       1.21       6.84      19.21
C       1.07      12.91      25.98
C       0.37      13.93      26.65
C       1.06      14.97      27.31
C       2.48      14.96      27.29
C       3.18      13.94      26.62
C       4.24       9.99      24.26
C       3.65       9.42      23.11
C       4.23       8.28      22.51
C       5.40       7.71      23.07
C       5.99       8.28      24.22
C       5.41       9.42      24.81
C       3.12      11.93      25.37
C       3.67      11.02      24.84
C       7.96       7.18      25.30
C       7.03       7.71      24.76
C       3.66       7.72      21.48
C       3.12       7.18      20.56
C      45.38       6.47      45.62
C      38.97       6.61      39.28
C      45.40      12.93      39.32
C      38.59       7.11      38.01
C      37.61       6.44      37.26
C      36.99       5.26      37.75
C      37.35       4.80      39.03
C      38.34       5.46      39.79
C      45.12       5.10      45.81
C      45.80       4.38      46.81
C      46.73       5.03      47.66
C      46.98       6.41      47.46
C      46.31       7.13      46.45
C      46.65      13.34      39.83
C      47.41      14.32      39.16
C      46.94      14.90      37.95
C      45.67      14.51      37.47
C      44.91      13.53      38.14
C      43.64      10.01      41.01
C      44.24       9.42      42.14
C      43.67       8.26      42.72
C      42.51       7.70      42.16
C      41.90       8.28      41.03
C      42.47       9.44      40.45
C      44.75      11.97      39.91
C      44.20      11.05      40.44
C      39.94       7.20      39.94
C      40.86       7.72      40.48
C      44.25       7.68      43.74
C      44.79       7.12      44.65
C       2.54      49.45      45.58
C       8.90      49.42      39.17
C       2.58      42.99      39.30
C       8.89      49.45      37.76
C       9.92      50.13      37.07
C      10.97      50.76      37.76
C      10.97      50.72      39.17
C       9.95      50.05      39.88
C       3.20      50.52      46.22
C       2.54      51.27      47.21
C       1.20      50.97      47.58
C       0.57      49.88      46.95
C       1.22      49.12      45.96
C       1.33      42.57      39.82
C       0.58      41.58      39.15
C       1.05      41.00      37.95
C       2.31      41.39      37.46
C       3.07      42.38      38.12
C       4.31      45.94      40.95
C       3.71      46.52      42.10
C       4.26      47.69      42.67
C       5.40      48.29      42.09
C       6.00      47.71      40.94
C       5.45      46.54      40.38
C       3.23      43.96      39.87
C       3.77      44.89      40.40
C       7.93      48.82      39.82
C       7.02      48.29      40.37
C       3.68      48.25      43.69
C       3.14      48.80      44.61
N      40.15      51.38      52.30
N      51.75      40.15      51.93
N      51.36      51.79      40.72
N      15.79       4.51      52.18
N       4.33      15.86      51.97
N       4.50       4.30      40.71
N      40.10       4.53       4.91
N      51.64      15.78       5.07
N      51.38       4.28      16.39
N      15.86      51.42       4.88
N       4.35      40.12       5.08
N       4.48      51.68      16.30
N      36.15      51.38      28.30
N      47.74      40.15      27.93
N      47.35      51.79      16.72
N      11.78       4.51      28.18
N       0.33      15.86      27.97
N       0.49       4.30      16.71
N      36.11       4.53      37.06
N      47.64      15.78      37.22
N      47.38       4.28      48.54
N      11.86      51.42      37.03
N       0.35      40.12      37.23
N       0.49      51.68      48.45
