116

Zn       6.31       4.76      13.59
Zn       3.32       4.46      13.90
H       8.56       3.59      14.71
H       6.53       4.57       6.98
H       3.76       8.58      26.25
H       6.06       2.46       0.57
H       2.97       0.42      13.90
H       6.66       8.79      13.58
H       1.47       7.30       8.67
H       8.25       5.79       8.38
H       7.98       6.75       9.86
H       1.60       4.69      10.32
H       2.43       6.25      10.72
H       1.07       5.61      12.76
H       1.24       3.43      19.37
H       7.76       2.15      18.94
H       1.48       2.40      17.92
H       7.37       3.33      16.78
H       8.37       4.73      17.34
H       3.65       2.17      25.34
H       5.12       2.01      24.29
H       3.65       2.86      23.68
H       3.73       0.73      22.67
H       2.35       0.68      23.83
H       2.35       5.46       7.13
H       7.27       0.88       1.60
H       5.54       0.35       1.54
H       7.25       8.21       2.77
H       6.90       1.90       3.84
H       5.20       1.28       3.79
H       1.60       1.61       2.49
H       3.39       1.59       2.51
H       2.51       2.59       1.30
H       3.22       0.73       0.06
H       1.47       0.40       0.49
H       7.63       5.11      20.08
H       2.88       4.75      25.02
H       3.71       4.58      26.61
H       2.66       6.02      26.29
H       0.29       3.73       0.30
H       1.71       3.09      26.55
H       2.91       8.18       3.42
H       8.55       3.74      24.16
H       3.06       4.82      18.22
H       6.59       4.22       9.37
H       3.37       5.15      20.62
C       4.63       7.12      13.77
C       5.30       6.94      23.81
C       4.50       4.75       9.69
C       5.18       4.60      17.79
C       5.38       7.19      26.66
C       5.40       4.48       0.59
C       7.01       5.37      26.72
C       4.07       6.56       0.62
C       6.20       6.26      25.99
C       4.66       5.44       1.30
C       4.55       8.00      25.85
C       5.00       2.09      13.71
C       5.71       3.26       1.20
C       4.64       8.02      24.45
C       5.56       3.04       2.57
C       4.65       4.60      11.15
C       4.98       4.60      16.33
C       3.50       7.62       1.42
C       8.02       4.64      26.03
C       4.54       8.52      13.79
C       5.09       0.69      13.69
C       3.90       6.20       4.85
C       4.52       5.28       2.70
C       6.61       4.77      22.63
C       4.87       4.03       4.76
C       5.08       6.59      22.45
C       5.62       4.72       7.55
C       4.24       5.04      19.98
C       5.65       4.53       8.92
C       4.07       4.81      18.62
C       3.30       5.18       9.07
C       6.47       4.52      18.37
C       3.26       5.24       7.66
C       6.13       6.11      24.58
C       6.64       4.98      19.68
C       4.42       5.03       6.90
C       5.53       5.19      20.51
C       2.08       5.60       9.89
C       1.02       6.41       9.14
C       7.68       3.92      17.66
C       8.45       2.92      18.53
C       3.46       0.69      23.74
C       4.01       2.01      24.30
C       6.02       1.71       3.18
C       3.92       6.30       3.45
C       6.40       0.59       2.20
C       2.51       0.45       0.87
C       2.51       1.62       1.86
C       1.58       4.18      26.69
C       2.78       4.93      26.11
C       6.87       5.09      23.96
C       3.40       7.43       2.81
C       7.87       4.42      24.67
C       5.00       4.10       3.35
N       4.38       5.09       5.47
N       5.74       5.52      21.89
N       1.32       4.26      14.10
N       8.31       4.96      13.38
O       5.81       6.64      13.65
O       7.20       3.68      22.09
O       4.18       7.26      21.70
O       5.23       2.92       5.43
O       3.82       2.57      13.83
O       3.57       6.42      13.88
O       6.06       2.80      13.60
O       5.84       4.67      11.67
O       3.79       4.54      15.81
O       3.60       4.45      11.90
O       6.03       4.77      15.58
O       3.43       7.24       5.58
