38

C       6.66       2.14       4.28
C      -1.74       0.71       4.46
C       6.07      -0.23       4.79
C      -0.41       0.28       4.32
C       0.91       4.12       6.55
C       0.52       3.74       7.95
C       1.50       3.29       8.83
C      -0.82       3.83       8.39
C      -3.49       5.92       4.98
C       4.92       7.36       4.80
C      -2.90       8.30       4.48
C       3.58       7.78       4.95
C       2.26       3.94       2.71
C       2.66       4.32       1.32
C       1.67       4.77       0.43
C       3.99       4.24       0.88
H       0.33       1.92       4.02
H       5.19       0.04       4.89
H      -1.55       4.35       6.81
H       2.38       3.22       8.55
H       2.85       6.15       5.25
H      -2.02       8.02       4.37
H       4.73       3.71       2.45
H       0.79       4.84       0.72
Mg       3.79       3.19       5.36
Mg      -0.61       4.87       3.90
O       5.49       2.48       4.48
O      -1.21       2.92       3.88
O       0.61       1.15       4.00
O       2.08       3.96       6.19
O      -0.01       4.62       5.83
O      -1.83       4.26       7.58
O      -2.32       5.58       4.78
O       4.39       5.14       5.38
O       2.57       6.92       5.27
O       1.09       4.10       3.08
O       3.19       3.44       3.43
O       5.01       3.80       1.69
