48

O      -0.58       2.03       1.70
O      -2.03       2.46       0.11
O      -7.70      13.30       1.10
H      -2.52       4.86      -0.05
H      -2.27       7.16       0.19
H       0.87       6.53       2.62
H       0.68       4.23       2.28
H      -2.65       8.90       1.49
H      -3.98      10.48       0.41
H      -6.01      11.60       0.44
O       6.22      13.81       2.36
O       5.13      14.86       3.96
O      -7.10      14.35       2.97
C       5.19      13.95       3.11
C       4.04      13.00       2.97
C       2.86      13.32       3.59
C       1.72      12.50       3.43
C       1.76      11.38       2.59
C       3.00      11.06       1.99
H       0.93      12.71       3.88
C       0.53      10.61       2.30
C      -0.73      11.28       2.33
H       3.05      10.31       1.44
C       4.14      11.85       2.18
H       2.80      14.08       4.11
H       4.95      11.62       1.79
H      -0.76      12.17       2.57
C      -3.43      12.36       3.01
H      -2.80      12.53       3.66
C      -4.63      13.07       2.99
H      -4.78      13.73       3.63
H       1.31       8.79       2.03
C      -1.22       2.86       0.95
C      -0.96       4.33       1.09
C      -1.84       5.19       0.48
C      -1.70       6.59       0.64
C      -0.71       7.11       1.47
C       0.19       6.20       2.08
C       0.08       4.82       1.89
C      -0.65       8.57       1.77
C      -1.86       9.32       1.73
C       0.51       9.26       2.03
C      -1.88      10.63       2.03
C      -3.19      11.39       2.03
C      -4.15      11.12       1.06
C      -5.36      11.80       1.07
C      -5.61      12.79       2.03
C      -6.90      13.54       2.03
