48

C       9.49      11.47      13.15
C       9.24      10.00      13.29
C      10.11       9.13      12.68
C       9.97       7.74      12.84
C       8.98       7.21      13.67
C       8.08       8.13      14.28
C       8.19       9.51      14.09
C       8.92       5.76      13.97
C      10.13       5.00      13.93
C      12.42       3.21      13.26
O       8.85      12.29      13.90
O      10.30      11.87      12.31
C      13.63       2.52      13.27
O      15.98       1.03      13.29
O       2.05       0.51      14.56
O       3.14      -0.53      16.16
O      15.37      -0.02      15.17
H      10.80       9.47      12.15
H      10.54       7.16      12.39
H       7.40       7.80      14.82
H       7.59      10.09      14.48
H      10.93       5.43      13.69
H      12.25       3.84      12.60
H      14.28       2.72      12.64
C       3.08       0.37      15.31
C       4.23       1.33      15.17
C       5.42       1.01      15.79
C       6.56       1.82      15.63
C       6.52       2.94      14.79
C       5.27       3.26      14.18
C       4.13       2.47      14.38
C       7.75       3.72      14.50
C       9.01       3.05      14.53
C      11.71       1.97      15.20
C      12.90       1.26      15.19
H       5.47       0.24      16.31
H       7.34       1.61      16.08
H       5.22       4.02      13.64
H       3.32       2.71      13.98
H       9.04       2.15      14.77
H      11.07       1.79      15.86
H      13.05       0.59      15.83
H       6.96       5.53      14.23
C       7.76       5.07      14.23
C      10.15       3.69      14.23
C      11.46       2.93      14.23
C      13.88       1.54      14.23
C      15.18       0.79      14.23
