48

C       2.66       1.54      22.37
C       1.37       0.79      22.37
O      14.49       0.51      22.04
O      13.40      -0.53      20.44
O       1.17      -0.02      21.43
O       7.69      12.29      22.70
O       6.24      11.87      24.29
O       0.57       1.03      23.30
C       9.99       1.82      20.97
C      10.03       2.94      21.81
C      11.27       3.26      22.41
C      11.13       1.01      20.81
C       8.80       3.72      22.10
C       7.54       3.05      22.06
C       4.84       1.97      21.39
C       3.64       1.26      21.41
C      12.41       2.47      22.22
H      11.07       0.24      20.29
H       9.20       1.61      20.52
H      11.33       4.02      22.96
H      13.22       2.71      22.61
C       7.05      11.47      23.44
C       7.31      10.00      23.31
H       7.51       2.15      21.83
H       5.47       1.79      20.74
H       3.49       0.59      20.77
C       6.57       7.74      23.76
C       7.56       7.21      22.93
C       8.46       8.13      22.32
C       6.43       9.13      23.92
C       7.62       5.76      22.63
H       5.75       9.47      24.45
C       6.41       5.00      22.67
C       4.12       3.21      23.34
C       2.91       2.52      23.33
H       6.00       7.16      24.21
C       8.35       9.51      22.51
H       5.62       5.43      22.91
H       4.29       3.84      23.99
H       2.26       2.72      23.96
H       8.96      10.09      22.12
H       9.14       7.80      21.78
H       9.58       5.53      22.37
C      12.31       1.33      21.43
C      13.46       0.37      21.29
C       8.78       5.07      22.37
C       6.39       3.69      22.37
C       5.08       2.93      22.37
