28

Cd       2.72       7.09       4.35
Cd       3.26       0.03       7.38
Cd       2.99       3.56       5.87
Cd       2.46      10.64       5.87
C       4.54       6.38       6.73
C       2.64       4.77       2.84
C       0.91       7.83       6.73
C       2.81       9.41       2.84
C       1.44       0.74       5.00
C       3.34       2.35       8.90
C       4.01      13.45       5.00
C       2.11      11.87       8.89
O       4.43       7.22       5.78
O       3.83       5.33       6.91
O       3.28       4.73       3.99
O       1.94       5.77       2.53
O       1.02       6.99       5.78
O       1.63       8.88       6.92
O       2.18       9.45       4.00
O       3.50       8.41       2.53
O       1.55      -0.10       5.95
O       2.15       1.79       4.82
O       2.70       2.39       7.74
O       4.04       1.35       9.20
O       4.97       0.13       5.95
O       3.29      12.41       4.82
O       2.74      11.83       7.73
O       2.48      -1.29       9.20
