24

C      14.56      13.29       7.35
C      14.55      13.98       6.10
C      15.06      13.42       5.00
C      15.64      12.24       5.19
C      15.15      12.02       7.45
C      15.08      11.24       8.69
C      14.34       9.31       9.66
C      14.57       9.74      10.96
O      14.32      14.95       8.98
O      12.74      13.47       8.90
C      15.60      11.68       9.86
O      17.16      13.35       9.04
C      15.27      10.91      11.06
C      16.45      12.97      10.01
O      16.52      13.42      11.12
C      13.80      13.94       8.49
H      14.19      14.83       6.06
H      15.01      13.82       4.16
H      16.04      11.87       4.44
H      14.03       8.44       9.55
H      14.27       9.27      11.71
H      15.54      11.21      11.89
N      15.74      11.48       6.32
N      14.52      10.01       8.54
