24

O      12.28       6.23      18.77
O      13.47       8.12      18.80
O      11.20       7.32      16.01
O      13.37       7.06      15.52
C      12.39       7.49      18.82
C      11.10       8.28      18.85
C      10.10       7.89      19.72
C       8.91       8.57      19.81
C       8.74       9.68      18.99
H      10.24       7.14      20.26
H       8.24       8.31      20.40
C      10.81       9.36      18.05
C      13.59      11.27      15.48
C      13.50       9.89      15.38
H      14.07       9.43      14.80
C      12.59       9.21      16.13
C      12.38       7.72      15.88
C      11.76       9.93      17.04
H       7.95      10.17      19.06
H      12.68      12.87      16.23
C      12.68      11.94      16.24
H      14.26      11.73      15.03
N       9.67      10.06      18.12
N      11.76      11.30      17.01
