24

O       9.47      29.96       6.23
O      10.66      29.93       8.12
O       8.39      32.72       7.32
O      10.56      33.21       7.06
H       7.43      28.47       7.14
H       5.43      28.32       8.31
H       5.14      29.67      10.17
H       9.87      32.50      12.87
H      11.45      33.70      11.73
H      11.26      33.93       9.43
N       6.86      30.61      10.06
N       8.95      31.72      11.30
C       9.59      29.91       7.49
C       8.29      29.88       8.28
C       7.29      29.01       7.89
C       6.10      28.92       8.57
C       5.93      29.73       9.68
C       8.00      30.68       9.36
C       8.95      31.69       9.93
C       9.87      32.49      11.94
C      10.78      33.25      11.27
C      10.70      33.35       9.89
C       9.78      32.60       9.21
C       9.57      32.85       7.72
