24

O       8.16      11.26       2.69
O       8.79      13.11       1.65
O       4.50      13.20       1.86
O       5.99      12.36       0.45
H       7.95      11.93       5.12
H       7.26      13.20       6.91
H       6.49      15.38       6.53
H       7.41      18.13       1.08
H       6.71      17.14      -0.92
H       5.85      15.01      -0.84
N       7.22      16.56       2.22
N       6.66      15.36       4.60
C       8.22      12.56       2.56
C       7.57      13.33       3.70
C       7.63      12.80       4.99
C       7.23      13.54       6.04
C       6.75      14.85       5.81
C       7.00      14.61       3.52
C       6.79      15.27       2.23
C       7.15      17.24       1.08
C       6.69      16.67      -0.12
C       6.21      15.39      -0.07
C       6.26      14.62       1.10
C       5.55      13.30       1.19
