24

H      16.88      31.95       1.93
H      17.18      30.41       0.20
H      15.49      28.79      -0.11
H      10.79      27.97       3.63
H      11.11      27.67       5.85
H      13.11      28.37       6.81
O      16.27      32.59       4.29
O      14.13      31.99       4.48
O      16.31      29.24       5.22
O      15.13      30.15       6.85
N      14.65      29.02       1.64
C      15.46      30.88       2.89
C      16.37      31.18       1.88
C      15.29      31.90       4.00
C      16.49      30.32       0.81
N      12.53      28.82       3.22
C      15.52      29.29       0.68
C      11.59      28.25       4.02
C      14.66      29.78       2.75
C      11.77      28.07       5.32
C      13.68      29.22       3.78
C      13.96      29.08       5.14
C      12.97      28.49       5.90
C      15.23      29.53       5.77
