24

O      20.25      20.53      32.38
O      22.39      20.72      32.98
O      20.20      21.46      35.74
O      21.39      23.09      34.83
N      21.87      17.88      35.96
N      23.99      19.46      36.15
C      21.23      20.24      33.07
C      21.06      19.14      34.09
C      20.15      18.12      33.80
C      20.03      17.05      34.65
C      21.00      16.92      35.68
C      21.86      19.00      35.20
C      22.84      20.02      35.75
C      24.93      20.26      36.72
C      24.75      21.57      36.90
C      23.55      22.14      36.48
C      22.56      21.39      35.89
C      21.29      22.02      35.45
H      19.64      18.17      33.02
H      19.34      16.44      34.56
H      21.03      16.14      36.18
H      25.73      19.87      37.00
H      25.41      22.09      37.30
H      23.41      23.06      36.60
