24

C       7.89      27.16      11.83
C       6.69      26.59      12.25
C       5.71      27.34      12.84
C       4.44      26.71      13.28
O       3.40      28.20      16.35
N       5.01      30.85      12.77
N       7.14      29.27      12.58
O       5.54      28.01      15.75
C       8.07      28.47      12.01
O       3.35      27.27      12.99
H       2.78      30.56      15.71
H       2.48      32.29      14.17
H       4.17      32.59      12.55
H       8.87      28.86      11.73
H       8.55      26.64      11.43
H       6.55      25.67      12.13
C       4.38      28.49      15.66
C       4.20      29.59      14.63
C       3.30      30.60      14.93
C       3.17      31.68      14.08
C       4.15      31.81      13.05
C       5.00      29.73      13.53
C       5.99      28.71      12.98
O       4.53      25.64      13.90
