24

O      16.58      25.23      17.54
O      18.16      25.14      19.02
O      14.38      27.36      19.06
O      13.74      25.29      19.13
N      15.16      22.56      21.01
N      16.38      24.79      22.48
C      16.34      23.59      19.20
C      16.35      22.35      18.51
C      15.84      21.25      19.07
C      15.26      21.44      20.24
C      15.75      23.70      20.47
C      15.82      24.93      21.25
C      16.56      25.90      23.18
C      16.33      27.21      22.74
C      15.63      27.30      21.58
C      15.30      26.10      20.80
C      14.45      26.26      19.51
C      17.10      24.73      18.55
H      16.71      22.30      17.66
H      15.89      20.41      18.67
H      14.86      20.68      20.61
H      16.87      25.80      24.05
H      16.63      27.95      23.21
H      15.36      28.13      21.27
