24

C       8.64      28.80      18.80
C       9.28      29.57      19.94
C       9.22      29.04      21.23
C       9.63      29.78      22.29
C      10.11      31.10      22.05
C       9.86      30.86      19.76
C      10.06      31.51      18.47
N      10.20      31.60      20.84
N       9.63      32.80      18.47
C      10.64      31.63      16.17
C      10.60      30.86      17.35
C      11.31      29.55      17.43
C       9.70      33.48      17.32
C      10.17      32.91      16.12
H       8.91      28.18      21.37
H       9.60      29.45      23.15
H      10.36      31.62      22.78
H       9.44      34.38      17.32
H      10.15      33.39      15.32
H      11.00      31.25      15.40
O       8.70      27.50      18.93
O       8.06      29.35      17.89
O      12.35      29.44      18.10
O      10.87      28.60      16.70
