24

O       5.35       2.69       4.98
O       5.98       1.65       3.13
O       1.69       1.86       3.04
O       3.18       0.45       3.89
H       5.14       5.12       4.31
H       4.45       6.91       3.04
H       3.69       6.53       0.87
H       4.60       1.08      -1.89
H       3.90      -0.92      -0.90
H       3.04      -0.84       1.23
N       4.41       2.22      -0.32
N       3.85       4.60       0.88
C       5.41       2.56       3.69
C       4.76       3.70       2.91
C       4.82       4.99       3.45
C       4.42       6.04       2.70
C       3.94       5.81       1.39
C       4.19       3.52       1.63
C       3.98       2.23       0.97
C       4.34       1.08      -1.00
C       3.88      -0.12      -0.42
C       3.40      -0.07       0.86
C       3.45       1.10       1.62
C       2.74       1.19       2.94
