24

H      13.90      31.07      22.30
H      13.08      30.06      20.41
H      12.05      28.12      20.68
H      14.06      24.68      25.80
H      13.82      25.52      27.95
H      12.55      27.46      28.13
C      13.53      29.53      23.59
C      13.54      30.22      22.35
C      13.03      29.66      21.25
C      12.45      28.49      21.44
C      12.94      28.26      23.70
C      13.02      27.48      24.93
C      13.75      25.55      25.90
C      13.52      25.99      27.21
C      12.82      27.15      27.30
C      12.49      27.92      26.10
C      11.65      29.22      26.26
C      14.29      30.18      24.73
O      13.77      31.19      25.23
O      15.35      29.71      25.14
O      11.57      29.67      27.36
O      10.93      29.59      25.29
N      12.35      27.72      22.56
N      13.57      26.25      24.79
