24

C      15.29      16.82      12.24
C      15.46      17.85      13.35
C      16.37      17.55      14.36
C      16.49      18.41      15.43
C      15.52      19.44      15.57
C      14.66      18.95      13.49
C      13.68      19.51      12.46
C      11.59      20.48      12.23
C      11.77      20.66      10.92
C      12.97      20.24      10.34
C      13.96      19.65      11.10
C      15.23      19.20      10.47
O      16.27      16.14      11.96
O      14.13      16.73      11.76
O      16.31      19.49      11.03
O      15.13      18.58       9.39
H      16.88      16.78      14.32
H      17.18      18.32      16.04
H      15.49      19.94      16.35
H      10.79      20.76      12.61
H      11.11      21.06      10.40
H      13.11      20.36       9.43
N      14.65      19.71      14.61
N      12.53      19.91      13.03
