24

C       9.53       4.22       8.79
C       9.46       5.00       7.56
C       8.73       6.94       6.58
C       8.95       6.50       5.28
C       9.65       5.33       5.18
C       9.98       4.56       6.39
C      10.83       3.27       6.23
C       8.19       2.31       7.76
O       8.70       1.30       7.26
O       7.12       2.77       7.34
O      10.91       2.82       5.13
O      11.54       2.89       7.20
H       8.57       1.41      10.18
H       9.39       2.42      12.08
H      10.43       4.37      11.80
H       8.42       7.81       6.69
H       8.65       6.97       4.53
H       9.93       5.03       4.35
N      10.12       4.76       9.92
N       8.90       6.24       7.70
C       8.94       2.96       8.89
C       8.93       2.26      10.14
C       9.44       2.83      11.24
C      10.02       4.00      11.05
