26

Ag       3.99       3.86       4.16
Ag       5.99       5.17       5.49
H       5.00       7.96       4.00
H       5.92       8.39       5.47
H       3.01       8.27       5.33
H       3.93       8.82       6.59
H       4.99       5.35       1.37
H       4.07       3.88       0.94
H       2.95       4.02       1.05
H       2.03       2.76       0.51
H       2.94       1.36       5.45
H       2.08       1.02       3.92
H       4.99       1.08       4.11
H       4.03       0.84       2.78
H       3.03       3.87       7.99
H       3.88       5.39       8.32
H       5.00       5.21       8.26
H       5.96       6.54       8.50
C       4.97       8.61       4.89
C       5.02       4.46       0.72
C       3.01       0.76       4.52
C       2.96       4.80       8.58
N       3.98       8.18       5.79
N       1.99       3.57       1.15
N       4.02       1.28       3.70
N       5.97       5.62       8.06
