11

C       1.83       3.80      17.54
Cd       4.07       3.32      15.97
C       5.53       1.18      14.97
C       4.53       6.49      15.53
O       2.03       2.64      17.07
C       5.95       5.23      14.19
N       4.89       5.29      15.03
N       5.33       3.37      17.96
C       6.20       2.37      18.23
C       5.31       4.45      18.77
O       4.41       1.06      15.60
