11

O       4.42       6.60       5.92
Cd       4.07       4.32       6.31
O       2.03       4.95       7.38
N       5.32       4.26       8.31
C       6.20       5.24       8.58
C       5.29       3.17       9.11
C       1.83       3.78       7.86
N       4.89       2.35       5.37
C       4.52       1.15       5.86
C       5.95       2.41       4.52
C       5.53       6.46       5.30
