14

O      12.80      18.55      19.67
O      13.99      18.20      17.83
C      16.16      21.78      19.52
Zn      14.78      19.13      19.50
C      15.76      18.27      22.07
O      15.83      18.07      20.81
O      15.28      19.31      22.63
C      12.96      22.18      22.54
Zn      14.98      21.09      21.93
O      13.95      22.09      23.36
O      13.06      21.68      21.36
O      16.35      21.87      20.79
O      15.49      20.86      18.94
C      12.90      18.07      18.49
