14

C      13.96       4.94       5.10
O      14.06       8.54       7.96
O      12.88       8.95       9.79
Zn      11.95       6.06       5.69
Zn      12.07       8.01       8.12
C      11.19       8.88       5.54
C      13.98       9.05       9.13
O      11.07       9.08       6.79
O      11.71       7.85       5.00
O      10.59       5.22       6.81
O      13.86       5.41       6.29
O      12.98       5.07       4.27
C      10.71       5.34       8.08
O      11.31       6.31       8.67
