14

Zn      19.55       0.99      20.03
Zn      21.37       1.80      22.40
C      18.58      -0.94      19.00
C      22.45      -0.24      23.00
O      19.61       2.11      23.12
O      18.36       2.04      21.22
C      18.52       2.27      22.47
O      21.19       1.83      19.43
O      22.20       2.98      21.11
O      19.04      -1.01      20.20
O      18.69       0.15      18.34
C      22.09       2.62      19.89
O      21.94      -0.16      21.83
O      22.41       0.76      23.81
