56

Mn      -2.54       7.30       1.57
Mn      -1.07      11.07       8.19
Mn      -1.79       9.14       4.86
Mn      -1.59       6.30      -1.56
Mn      -3.13       2.54      -8.23
Mn      -2.35       4.46      -4.87
Mn      -6.66       6.80       0.01
C       0.65       4.55      -0.35
O       0.34       9.65       8.52
C      -4.12       1.93      -5.58
O      -2.71       5.79      -6.48
O      -1.78       3.91      -7.24
O      -0.57      12.46       9.74
O       1.70      10.20      10.24
O      -3.38       7.83       4.33
O      -3.23       6.01       3.01
O      -5.20       5.17       0.13
O      -3.06       5.92       0.00
O      -2.92       4.90      -2.59
O      -1.89       3.07      -3.32
O      -5.33       8.19      -0.46
O      -3.94       8.75       1.23
O      -0.17      10.43       5.34
O      -0.37      12.24       6.68
O      -4.55       3.99      -8.45
O      -5.90       3.45     -10.18
O      -1.42       7.81       6.48
O      -2.40       9.68       7.19
O      -2.52      10.75       9.79
O      -4.67      10.02       9.92
O      -0.72       5.75      -4.37
O      -0.82       7.54      -2.99
O       1.06       8.43      -0.06
O      -1.08       7.68       0.00
O      -1.21       8.72       2.59
O      -2.24      10.55       3.32
O       1.17       5.41       0.45
O      -0.18       4.86      -1.27
O      -3.96       3.17      -5.34
O      -3.81       1.37      -6.70
Mn       3.03      11.61       9.80
C       1.18       9.34       9.43
C      -2.18       5.13      -7.43
C       0.33      13.39       9.73
C      -3.56       6.59       4.12
C      -3.96       4.98       0.01
O       1.56      13.19       9.60
C      -2.48       3.69      -2.39
C      -4.78       9.05       0.33
C      -0.02      11.68       5.57
C      -5.38       4.30      -9.37
C      -1.99       8.47       7.40
C      -3.43       9.82       9.81
C      -0.52       6.98      -4.12
C      -0.18       8.62       0.01
C      -1.66       9.92       2.38
