84

C       0.08       9.74      18.59
C       9.82       7.24      18.44
C       0.09       8.51      17.86
C       0.28       7.44      15.70
C       0.53       7.64      14.35
C       0.07       4.90      15.60
C       0.11       6.16      16.29
C       9.83       2.52      15.67
C       9.86       3.63      13.59
C       8.53       2.35      10.49
C       7.28       1.87      10.12
C       8.54      -3.57      11.77
C       7.29      -3.64      12.37
C       8.54       0.51      16.27
C       7.29       1.07      16.06
C       0.08     -10.21      18.59
C       0.08      -0.24       1.32
C       9.82       0.84       9.02
C       0.07      -0.41       7.00
C       9.85      -1.52       9.10
C       9.82      -4.08      13.81
C       0.07      -5.21      15.90
C       9.86      -2.83      15.81
C       0.12      -0.44       5.56
C       9.82       0.88       3.55
C       0.09      -0.26       2.74
C       0.30      -1.59       4.75
C       0.56      -2.86       5.24
C       0.12      -6.43      16.64
C       9.81      -8.83      16.51
C       0.09      -8.96      17.90
C       0.30      -6.56      18.05
C       0.55      -5.50      18.90
C       9.74       2.01       9.80
C       1.12       3.16      11.49
C       9.82       3.47      12.20
C       9.74      -3.98      12.40
C       1.11      -3.11      10.55
C       9.82      -2.65       9.94
C       9.75       1.26      16.30
C       1.12      -0.78      16.44
C       9.83      -1.54      16.36
H       9.68      18.29       0.11
H       9.67      12.68      15.90
H       7.17       2.02      16.31
H       1.35       7.20      14.00
H       9.67       1.81       3.15
H       7.16       1.60       9.17
H       7.16      -4.35      13.05
H       1.35      -2.95       5.84
H       1.34      -4.94      18.68
H       2.04       3.33      11.90
H       2.03      -2.84      10.20
H       2.04      -1.22      16.35
N       0.08      20.93       0.61
N       0.08      10.93      17.93
N       9.83       6.14      17.65
N       0.26       8.53      16.51
N       0.01       3.72      16.31
N       0.04       4.82      14.24
N       9.81       2.50      14.32
N       8.66       3.00      11.67
N       8.66      -2.87      10.61
N       8.66      -0.85      16.25
N       0.08       0.93       0.61
N       0.01       0.79       7.66
N       0.04      -1.55       7.74
N       9.79      -0.32       9.71
N       0.01      -5.23      14.53
N       0.04      -3.98      16.52
N       9.80      -2.90      14.46
N       9.83       0.74       4.90
N       0.27      -1.44       3.39
N       9.83      -7.59      15.95
N       0.27      -7.81      18.59
N       1.03       2.40      10.37
N       1.03      -3.69      11.77
N       1.04       0.57      16.33
O       0.28       8.74      13.86
O       0.35      18.49       4.54
O       6.29       2.37      10.63
O       6.29      -3.40      11.70
O       6.29       0.38      16.19
O       0.34       5.56       0.76
