13

O       5.49       2.77      12.34
O       7.29       5.66      13.43
C       6.52       4.65      13.46
O       5.34      -0.17      10.36
O       3.77       0.69      11.75
C       6.78       2.43      10.52
C       5.72       1.95      11.27
C       7.23       3.61      11.17
C       4.84       0.76      11.15
H       7.18       1.97       9.62
H       8.05       4.27      10.89
C       6.43       3.78      12.28
O       5.84       4.31      14.50
