13

C       0.75       4.39       2.53
O       1.43       4.72       1.48
O       1.78       6.26       3.65
O      -0.02       3.38       2.55
H       0.09       7.06       6.36
O       1.93       9.21       5.63
H      -0.78       4.77       5.09
O       3.50       8.34       4.23
C       0.49       6.60       5.46
C       1.55       7.09       4.72
C       0.04       5.42       4.82
C       2.43       8.27       4.83
C       0.84       5.26       3.70
