13

C      -1.45       9.76       1.23
O       2.66       7.85       0.79
C      -2.48      10.77       0.92
C       0.60       8.91       1.12
C      -1.51       8.49       1.76
C      -0.20       7.95       1.69
H      -2.41       8.02       2.14
H       0.13       6.96       1.98
O      -2.10      11.90       0.48
O      -0.15      10.04       0.85
O       2.52      10.07       0.37
O      -3.68      10.36       1.10
C       2.02       8.95       0.74
