13

O       1.43      -3.92      14.69
C       1.93      -4.46      12.43
O       2.83      -2.58      13.57
O       3.65      -3.86       8.79
C       1.31      -5.68      12.24
H       0.79      -6.24      13.01
C       2.07      -3.60      13.62
O       2.55      -4.06      11.27
H       1.24      -6.96      10.39
O       2.83      -5.85       8.18
C       1.56      -6.06      10.90
C       2.94      -4.91       9.04
C       2.32      -5.05      10.35
