32

Pr       3.05      12.77       8.64
Pr       2.95      19.19       3.91
C       3.92      15.00       6.20
C       2.22      16.00       7.36
C       2.08      13.39      11.83
C       3.79      11.86      11.95
C       1.89       9.83       7.33
C       3.61      10.50       5.97
C       5.03      14.00       6.14
C       1.01      14.07      11.04
C       0.90      10.12       8.41
C       2.08      16.97       6.35
C       3.79      15.97       5.19
C       3.85      12.02      13.34
C       2.14      13.55      13.22
C       3.47       9.32       5.21
C       1.75       8.66       6.56
C       0.97      17.97       6.41
C       4.91      11.33      14.14
C       4.47       9.04       4.13
N       3.13      15.02       7.29
N       2.91      12.54      11.20
N       2.80      10.75       7.01
N       2.88      16.95       5.27
N       3.02      12.88      13.97
N       2.56       8.40       5.52
O       5.08      13.20       7.19
O       1.02      13.78       9.75
O       1.00      11.31       8.95
O       0.92      18.75       5.34
O       4.88      11.61      15.43
O       4.38       7.83       3.61
