39

Cd      11.97      13.31      12.92
Cd      11.32       9.94      14.37
O      13.44      20.16      12.67
O      12.26      18.28      13.22
O      13.10       9.29      12.96
O      13.17      11.41      13.65
Cd      13.57      20.10      10.42
C       9.87      15.51      12.74
Cd      12.77      16.71      11.67
Cd      14.22      23.47       8.97
C      16.29      21.94      10.10
C       9.25      11.47      13.24
C      15.67      17.90      10.61
C      15.14      25.63       7.73
C      12.12      18.42       8.76
C      10.40       7.78      15.62
C      13.42      14.99      14.58
C      12.81      19.40      13.48
C      12.73      14.01       9.87
C      13.54      10.47      12.83
O      10.50      11.45      12.84
O      15.40      18.92       9.88
O      14.95      17.46      11.55
O      11.11       8.63      16.27
O      10.17       7.92      14.38
O      12.75      14.09      15.13
O      13.50      15.08      13.28
O      12.10      13.25      10.68
O      13.28      15.13      10.12
C      12.00      22.94      10.51
O      12.37      22.00       9.70
O      12.44      24.13      10.39
O      15.04      21.96      10.51
O      10.14      14.49      13.47
O      10.59      15.95      11.79
O      14.43      24.78       7.07
O      15.37      25.50       8.97
O      12.80      19.33       8.21
O      12.04      18.33      10.06
