39

O      27.20       8.21      21.50
O      27.63       6.80      23.23
Cd      29.02       9.41      22.09
Cd      28.37      12.78      20.64
Cd      30.60       2.63      24.60
Cd      31.25      -0.74      26.05
C      29.84       3.31      21.54
Cd      29.81       6.02      23.35
O      29.07       4.42      24.95
O      29.77       3.38      26.79
O      31.45      -2.06      27.94
O      32.43      -2.75      26.06
C      29.77       8.73      25.15
C      30.58      12.28      22.20
C      29.04      -0.25      24.50
C      33.34       0.80      24.95
C      26.92       7.22      22.25
C      26.28      11.24      21.75
C      32.70       4.81      24.44
C      32.18      -2.90      27.29
C      29.13       4.32      26.24
O      29.16       9.49      24.33
O      30.33       7.61      24.89
O      29.46      -1.43      24.63
O      29.41       0.70      25.31
O      27.53      11.25      22.13
O      32.42       3.83      25.19
O      31.99       5.23      23.47
C      27.44      14.93      19.40
C      30.49       7.72      20.45
O      28.17      14.09      18.75
O      27.19      14.78      20.64
O      29.85       8.66      19.90
O      30.55       7.61      21.75
O      30.46       2.54      22.36
O      29.29       4.43      21.80
O      30.15      13.47      22.06
O      30.21      11.34      21.39
O      32.09       0.78      24.56
