164

C       5.16       4.41       2.71
C       5.32       6.00       0.80
C      -0.51       5.32      12.10
C       7.61       0.61       6.64
C       1.99       9.18      12.10
C      -1.59       4.66       6.68
C       4.06       5.07      12.06
C       6.65       0.35      18.04
C      -0.31       3.75      17.91
C       1.03       9.40       0.68
C       7.76       1.31      18.55
C       2.15       8.44       0.17
C       7.73       0.59       1.18
C       2.10       9.16      17.53
C       4.56       9.20       1.38
C      10.18       0.55      17.34
C      -0.56       3.57       0.70
C       5.06       6.18      18.02
C      -0.21       6.29      18.26
C       5.42       3.46       0.45
C      -0.46       5.34      16.01
C      -2.31       5.15      17.69
C       3.32       4.60       1.03
C      -0.81       5.12      17.43
C       4.82       4.63       1.28
C      -1.21       4.84       1.29
C       4.41       4.91      17.42
C      -0.25       6.02       1.07
C       5.37       3.73      17.65
C      -2.51       5.17       0.50
C       3.11       4.58      18.21
C       9.00       0.10      10.15
C       9.00       0.14       8.65
C       7.69       1.12       2.57
C       2.07       8.63      16.14
C       1.31       8.44       9.86
C       3.21       9.43       0.67
C       6.63       1.21       8.86
C       6.72       1.05      10.39
C       1.33       8.63       8.33
C       1.94       9.60      10.67
C       7.55       0.22       8.08
C       8.83       0.32      18.04
C      -1.83       6.16      10.16
C       4.02       3.46       8.63
C      -1.87       6.12       8.67
C       3.98       3.50      10.13
C       0.44       5.08       9.87
C       6.14       4.97       8.85
C      -1.52       3.71      10.44
C       3.94       5.88       8.28
C      -0.87       5.06      10.69
C       4.82       4.67       8.06
C      -1.22       4.82       8.10
C       4.45       4.89      10.64
C       0.27       4.97       8.34
C       5.94       5.00      10.38
C      -1.58       4.66       2.73
C       4.04       5.09      15.99
C      -1.62       3.53       8.91
C       3.77       6.01       9.81
C       5.15       4.41       6.64
Cr       7.47       5.28       4.70
Cr       3.63       7.53      14.02
Cr       9.26       2.22       4.69
Cr       1.84       4.47      14.02
Cr       5.73       2.19       4.67
Cr       0.10       7.56      14.05
H       7.91       2.37      18.31
H       2.85       5.48       1.51
H       6.41       6.00       8.57
H       0.83       4.10       7.94
H       6.30       5.96      10.81
H       0.74       3.57      17.67
H       6.37       6.18       1.04
H      -0.88       3.03      17.33
H       8.47       4.27      17.20
H       4.75       6.72       1.38
H      -1.24       2.71       0.84
H       4.38       7.04      17.87
H       0.39       3.34       1.22
H       6.01       6.41      17.50
H       0.77       6.55      17.88
H       6.40       3.20       0.83
H       0.75       5.78       1.45
H       6.37       3.97      17.26
H      10.65       0.39       1.62
H       7.95       4.48       0.78
H       4.42       8.63       2.32
H       5.28       8.70       0.70
H       5.02       9.36      17.10
H      10.04       1.12      16.40
H      -0.35       1.05      18.02
H       2.33       5.27      17.94
H      -2.82       6.20       0.79
H       2.80       3.55      17.93
H       2.29       7.38       0.40
H      -0.80       7.22      18.08
H       4.82       2.53       0.63
H      -0.60       6.92       1.62
H       5.02       2.83      17.10
H       4.13       9.13      10.45
H       9.65       0.94       8.32
H       9.36       1.05      10.56
H       3.89       9.01       8.26
H       1.97       7.65      10.11
H       6.76       2.24       8.54
H       1.93       7.84       7.83
H       7.18       1.95      10.86
H       5.73       0.63      17.48
H       0.12       9.12       1.23
H       5.72       0.89      10.83
H      -2.78       6.06      17.25
H       0.30       8.57       7.91
H       5.60       0.92       8.59
H       0.28       8.25      10.21
H      -1.56       7.19      10.46
H       4.39       2.49       8.31
H       2.84       3.69       1.47
H      -2.83       5.99      10.59
H       2.99       3.48       8.23
H      -2.88       6.30       8.34
H       2.96       3.22      10.43
H      -1.32       7.01       8.27
H       4.63       2.72      10.55
H       0.79       6.06      10.08
H       6.97       4.33       8.55
H       0.65       5.88       7.82
H       6.48       4.17      10.87
H      -0.88       2.92      10.88
H       4.41       6.80       7.86
H       8.73       3.66      10.91
H       2.97       5.76       7.77
H       8.67       3.12       8.61
H       2.76       5.84      10.03
H      -0.86       2.78       8.65
H       4.11       7.00      10.15
H       1.13       4.30      10.22
O      -2.35       5.59       3.18
O       3.18       8.92      12.51
O       8.80       0.83       6.21
O      -1.41       3.49       6.12
O       4.22       6.26      12.60
O       7.49       3.23       4.68
O       1.86       6.52      14.03
O       3.27       4.16      15.53
O       6.08       5.16       3.27
O       0.46       4.59      15.45
O       4.76       3.28       3.14
O      -0.87       6.47      15.58
O       6.54       1.04       3.25
O       0.91       8.71      15.46
O       8.82       0.83       3.16
O       3.19       8.92      15.56
O      -1.39       3.50       3.29
O       4.23       6.25      15.42
O      -2.36       5.58       6.23
O       3.26       4.16      12.48
O       6.07       5.16       6.10
O       0.44       4.59      12.62
O       4.74       3.28       6.19
O       6.52       1.04       6.08
O      -0.88       6.47      12.53
O       0.90       8.71      12.64
