112

Ag       4.93       4.73       4.17
Ag       7.52       3.67       1.34
Ag      -4.14       6.19       4.18
Ag       5.03       7.22       1.31
Ag      -1.53       0.79       6.44
Ag      -4.12       1.85       9.28
Ag       7.54      -0.68       6.44
Ag      -1.62      -1.70       9.30
H       1.78      -2.18       9.61
H       2.23       5.39       2.78
H       1.26       4.73       1.46
H       0.56       3.67       3.61
H       2.23       3.17       3.94
H       1.34       2.43       2.60
H       8.13      -1.33       3.14
H       8.66      -3.35       7.53
H       4.29       6.04       6.86
H       2.06       5.54       7.99
H       1.26       6.60       6.83
H       2.04       5.11       6.26
H       4.25       2.34       9.58
H      -1.45       5.51       2.78
H      -0.49       6.15       1.44
H       0.22       7.24       3.58
H      -1.46       7.73       3.92
H      -0.57       8.46       2.56
H      -2.18       1.41       3.16
H      -2.67       3.48       7.54
H      -3.43       4.92       6.86
H      -1.19       5.44       7.96
H      -0.39       4.35       6.80
H      -1.18       5.84       6.22
H       1.62       7.70       1.01
H       1.17       0.13       7.83
H       2.14       0.79       9.16
H       2.84       1.85       7.00
H       1.17       2.35       6.67
H       2.06       3.08       8.02
H      -4.73       6.84       7.47
H      -5.26       8.86       3.08
H      -0.89      -0.53       3.75
H       1.34      -0.02       2.62
H       2.15      -1.09       3.79
H       1.36       0.40       4.35
H      -0.85       3.17       1.04
H       4.86       0.01       7.84
H       3.89      -0.63       9.17
H       3.18      -1.72       7.03
H       4.86      -2.22       6.70
H       3.97      -2.94       8.05
H       5.59       4.11       7.46
H       6.07       2.04       3.08
H       6.83       0.59       3.76
H       4.59       0.08       2.66
H       3.80       1.16       3.81
H       4.58      -0.33       4.39
C       3.26       4.10       1.46
C       1.37      -1.86      10.55
C       2.02       4.48       2.20
C       1.51       3.37       3.14
C       3.51       7.35       5.42
C       3.27       8.67       3.75
C       3.43       6.72       6.76
C       2.12       5.95       6.97
C      -2.50       6.77       1.45
C       4.67       2.04      10.53
C      -1.25       6.41       2.19
C      -0.73       7.52       3.11
C      -2.67       3.60       5.42
C      -2.45       2.27       3.76
C      -2.57       4.25       6.76
C      -1.26       5.02       6.94
C       0.14       1.41       9.15
C       2.03       7.37       0.06
C       1.38       1.04       8.41
C       1.89       2.14       7.47
C      -0.11      -1.83       5.20
C       0.13      -3.15       6.86
C      -0.03      -1.20       3.85
C       1.28      -0.43       3.64
C       5.90      -1.26       9.16
C      -1.26       3.48       0.08
C       4.65      -0.89       8.43
C       4.13      -2.01       7.50
C       6.07       1.91       5.19
C       5.85       3.25       6.85
C       5.97       1.27       3.85
C       4.66       0.50       3.67
N       4.49       4.15       2.00
N       5.37       3.74       1.02
N       3.30       3.68       0.17
N       4.07       6.75       4.35
N       3.91       7.60       3.28
N       8.12      -2.29       5.08
N      -3.72       6.74       1.99
N       7.18       7.13       1.01
N      -2.54       7.17       0.15
N      -3.26       4.18       4.36
N      -3.12       3.32       3.29
N      -2.14       2.39       5.08
N      -1.09       1.37       8.61
N      -1.97       1.78       9.59
N       0.10       1.84      10.44
N      -0.66      -1.23       6.26
N      -0.51      -2.08       7.34
N      -4.72       7.80       5.54
N       7.12      -1.23       8.62
N      -3.78      -1.62       9.61
N       5.94      -1.65      10.47
N       6.66       1.34       6.25
N       6.52       2.20       7.32
N       5.54       3.12       5.53
