31

C       7.17       8.21       6.73
H       3.74      14.53      10.53
H       1.46      15.92       7.27
H       0.59      13.36       7.95
H       1.05      12.13      10.47
H       2.74      12.34      10.99
H       1.79      11.01       8.37
H       2.42      10.18       9.79
H       4.62      11.43       9.48
N       2.85      15.59       8.89
N       2.16      13.56       9.43
H       3.98      12.19       8.04
H       4.33       9.14       8.42
H       3.67       9.91       6.98
H       5.85      11.21       6.72
H       7.95       6.58       5.43
H       6.50      10.34       8.11
N       6.24       9.18       6.41
H       7.65       8.18       7.71
H       5.05       9.53       4.63
N       6.45       7.90       4.62
C       3.03      14.56       9.71
C       1.82      15.24       8.03
C       1.38      13.98       8.36
C       2.08      12.27      10.12
C       2.51      11.11       9.21
C       3.92      11.27       8.65
C       4.36      10.07       7.82
C       5.78      10.27       7.29
C       7.30       7.43       5.61
C       5.82       8.96       5.14
