22

Ce      12.71      12.02       7.51
Ce      16.45      13.00       7.04
C      15.90      10.40       8.39
C      19.05      16.12       8.36
C      18.23      15.07       7.69
C      14.49      13.74       9.78
C      13.26      14.62       6.15
C      10.11       8.90       6.19
C      10.92       9.94       6.85
C      14.66      11.28       4.77
O      10.55      11.18       6.80
O      12.00       9.62       7.48
O      14.32      14.10       6.67
O      12.11      14.09       6.33
O      13.32      13.31       9.51
O      13.60      11.66       5.39
O      18.61      13.84       7.74
O      17.16      15.40       7.07
O      14.83      10.92       7.87
O      17.04      10.93       8.21
O      15.83      11.71       5.04
O      15.55      13.36       9.16
