44

Zn       6.26       4.53       5.09
Zn       3.21       4.23       5.39
H       8.10       3.85       1.76
H       1.36       4.91       8.73
H       9.30       6.36      10.46
H       0.16       2.40       0.02
H       2.92       0.19       5.40
H       6.55       8.58       5.09
H       8.66       3.26       6.11
H       0.81       5.50       4.38
C       4.53       6.89       5.28
C       1.68       3.57      10.29
C       8.82       4.50       9.61
C       0.65       4.27       0.87
C       7.61       4.00       9.13
C       1.86       4.77       1.35
C       6.41       4.33       9.75
C       3.06       4.43       0.73
C       5.42       4.80       0.48
C       4.04       3.97      10.01
C       5.17       4.00       9.19
C       4.94       1.87       5.21
C       4.30       4.76       1.30
C       4.43       8.29       5.30
C       5.03       0.47       5.19
C       4.47       4.53       2.73
C       5.00       4.24       7.75
C       6.58       5.51       0.82
C       2.89       3.26       9.67
C       7.79       5.19       0.19
N       1.17       4.03       5.60
N       8.30       4.73       4.89
O       5.73       6.42       5.16
O       3.74       2.35       5.33
O       3.44       6.19       5.38
O       6.03       2.57       5.10
O       5.69       4.45       3.21
O       3.77       4.31       7.28
O       3.41       4.23       3.44
O       6.06       4.54       7.05
F       6.55       6.49       1.76
F       2.92       2.28       8.73
F       7.64       2.97       8.24
F       1.82       5.80       2.24
