18

Co       6.03       7.21       0.81
N       1.24       8.13      -1.47
N       6.42       5.14       1.47
Co       3.23       8.83      -0.81
O       4.45       7.21       2.09
O       2.67       7.83       0.91
C       4.85       6.53      -1.96
C       1.11       7.27      -2.49
O       7.84       7.41      -0.14
C       0.23       8.38      -0.68
O       4.02       7.46      -2.09
O       5.45       6.23      -0.91
C       8.93       7.96       0.14
C       5.74       4.60       2.49
C       7.14       4.39       0.68
C       2.43      11.72      -0.14
O       2.49      10.49       0.14
C       3.23       7.47       1.96
