348

H       0.63       5.15       9.39
H       2.33       4.42      10.91
H       3.83       3.35      12.43
H       5.01       2.10      14.09
H       1.89      34.02      14.19
H      23.96       1.66      10.19
H      24.46       1.96      14.24
H      21.49      33.73      14.59
H      22.55      32.46      12.86
H       2.07      34.29       9.98
H      23.79      31.52      11.04
H      25.28      30.85       9.31
H      13.43      30.82      26.58
H      15.12      31.54      25.06
H      16.62      32.61      23.53
H      17.80      33.86      21.88
H      14.69       1.95      21.78
H      11.16      34.30      25.78
H      11.66      34.01      21.72
H       8.69       2.23      21.38
H       9.75       3.50      23.10
H      14.86       1.67      25.99
H      10.99       4.44      24.92
H      12.49       5.11      26.66
H       7.03      26.58       5.15
H       8.73      25.06       4.42
H      10.23      23.53       3.35
H      11.41      21.88       2.10
H       8.29      21.78      34.02
H       4.77      25.77       1.67
H       5.27      21.73       1.96
H       2.30      21.38      33.73
H       3.36      23.10      32.46
H       8.47      25.99      34.29
H       4.60      24.92      31.52
H       6.09      26.66      30.85
H      19.83       9.38      30.82
H      21.53      10.90      31.55
H      23.03      12.43      32.62
H      24.20      14.09      33.86
H      21.09      14.19       1.95
H      17.56      10.19      34.30
H      18.06      14.24      34.01
H      15.09      14.59       2.23
H      16.15      12.86       3.50
H      21.26       9.98       1.68
H      17.39      11.04       4.44
H      18.88       9.30       5.11
H      22.46       8.31       7.64
H      22.79       2.52       5.95
H      25.40       1.87       4.41
H      24.79       0.56       3.41
H      24.47       0.55       5.15
H      22.34       0.48       2.84
H      21.26       1.71       3.47
H      21.88       0.44       4.55
H      25.05       4.13       7.13
H      21.37       9.30       5.74
H       9.67      27.66      28.33
H      10.00      33.44      30.02
H      12.61      34.10      31.56
H      11.99       0.63      32.56
H      11.67       0.64      30.81
H       9.55       0.71      33.13
H       8.46      34.26      32.50
H       9.08       0.75      31.42
H      12.26      31.84      28.83
H       8.58      26.66      30.23
H       3.27      28.33       8.31
H       3.60      30.02       2.53
H       6.21      31.55       1.87
H       5.60      32.56       0.57
H       5.28      30.81       0.55
H       3.15      33.13       0.48
H       2.07      32.49       1.71
H       2.69      31.41       0.44
H       5.86      28.83       4.13
H       2.19      30.23       9.31
H      16.04       7.65      27.66
H      16.40       5.94      33.44
H      19.02       4.43      34.09
H      18.42       3.42       0.62
H      18.08       5.16       0.64
H      15.98       2.82       0.70
H      14.89       3.44      34.24
H      15.49       4.53       0.74
H      18.65       7.13      31.85
H      14.98       5.74      26.66
H      21.20       2.97      18.88
H      15.95       0.44      17.19
H      15.83      32.22      17.88
H      14.77      31.69      16.57
H      14.32      33.10      17.55
H      14.69      32.99      14.43
H      15.68      34.44      14.26
H      14.22      34.48      15.27
H      17.32      34.44      19.49
H      22.45       2.77      16.60
H       8.40      32.99      17.09
H       3.16       0.75      18.77
H       3.03       3.75      18.09
H       1.98       4.28      19.40
H       1.52       2.87      18.42
H       1.90       2.97      21.54
H       2.89       1.52      21.71
H       1.43       1.48      20.70
H       4.53       1.53      16.48
H       9.66      33.19      19.36
H       2.00      17.09       2.97
H      22.35      18.78       0.44
H      22.22      18.09      32.22
H      21.17      19.40      31.69
H      20.72      18.42      33.10
H      21.09      21.54      33.00
H      22.08      21.71      34.44
H      20.62      20.70      34.49
H      23.72      16.48      34.44
H       3.26      19.36       2.77
H      14.80      18.88      33.00
H       9.55      17.20       0.74
H       9.43      17.86       3.75
H       8.38      16.56       4.27
H       7.92      17.54       2.87
H       8.29      14.43       2.95
H       9.27      14.25       1.50
H       7.82      15.28       1.47
H      10.93      19.49       1.53
H      16.06      16.61      33.19
C       0.37      34.11      11.24
C      24.87      33.29      11.54
C      24.13      33.86      12.56
C      24.70       0.30      12.93
C      24.07       1.06      13.96
C      22.88       0.56      14.57
C      22.34      34.10      14.16
C      22.96      33.35      13.15
C      24.61      32.10      10.84
C      25.49      31.72       9.82
C       1.05      32.48       9.52
C       1.26      33.70      10.21
C       0.21       1.80      11.24
C       1.34       2.61      11.42
C       2.17       2.03      12.36
C       1.60       0.83      12.82
C       3.41       2.50      12.80
C       4.10       1.76      13.78
C       3.53       0.59      14.34
C       2.30       0.10      13.83
C      24.80       2.23      10.33
C      24.96       3.45       9.61
C       0.52       4.24       9.85
C       1.51       3.82      10.75
C       0.32       0.57      12.08
C      13.16       1.85      24.73
C      12.07       2.68      24.43
C      11.33       2.11      23.41
C      11.91       0.89      23.03
C      11.27       0.13      22.01
C      10.09       0.62      21.39
C       9.55       1.86      21.81
C      10.16       2.61      22.81
C      11.81       3.86      25.13
C      12.69       4.25      26.15
C      13.85       3.49      26.45
C      14.06       2.26      25.76
C      13.00      34.16      24.73
C      14.13      33.36      24.54
C      14.96      33.94      23.61
C      14.40       0.35      23.14
C      16.21      33.47      23.16
C      16.89      34.21      22.19
C      16.33       0.60      21.62
C      15.09       1.08      22.14
C      12.00      33.73      25.64
C      12.16      32.52      26.35
C      13.31      31.72      26.11
C      14.30      32.14      25.22
C      13.12       0.62      23.88
C       6.76      24.73      34.11
C       5.67      24.43      33.29
C       4.93      23.41      33.86
C       5.51      23.04       0.30
C       4.88      22.01       1.06
C       3.69      21.40       0.57
C       3.15      21.81      34.11
C       3.77      22.82      33.35
C       5.41      25.13      32.10
C       6.30      26.15      31.72
C       7.45      26.45      32.48
C       7.66      25.76      33.70
C       6.61      24.73       1.80
C       7.74      24.55       2.61
C       8.57      23.61       2.03
C       8.00      23.14       0.83
C       9.81      23.16       2.49
C      10.50      22.19       1.76
C       9.93      21.62       0.59
C       8.69      22.14       0.10
C       5.60      25.64       2.23
C       5.77      26.35       3.45
C       6.92      26.12       4.24
C       7.91      25.22       3.83
C       6.72      23.88       0.57
C      19.56      11.24       1.85
C      18.47      11.54       2.68
C      17.73      12.56       2.11
C      18.31      12.93       0.89
C      17.67      13.96       0.13
C      16.48      14.57       0.62
C      15.94      14.16       1.86
C      16.56      13.15       2.61
C      18.21      10.84       3.86
C      19.09       9.82       4.25
C      20.25       9.52       3.49
C      20.46      10.21       2.26
C      19.40      11.24      34.16
C      20.53      11.42      33.36
C      21.37      12.36      33.94
C      20.80      12.82       0.35
C      22.61      12.80      33.47
C      23.29      13.78      34.21
C      22.73      14.35       0.60
C      21.49      13.83       1.09
C      18.40      10.33      33.73
C      18.57       9.61      32.52
C      19.72       9.85      31.73
C      20.71      10.74      32.14
C      19.51      12.08       0.62
C      23.34       5.20       6.97
C      22.57       7.47       7.07
C      22.20       7.44       5.70
C      22.95       5.15       5.60
C      23.04       2.86       5.04
C      24.56       1.19       4.27
C      22.13       1.10       3.71
C      24.18       4.30       7.58
C      21.57       8.53       5.13
C      10.55      30.76      29.00
C       9.79      28.50      28.90
C       9.41      28.53      30.26
C      10.16      30.82      30.37
C      10.24      33.11      30.93
C      11.76       0.00      31.70
C       9.33       0.09      32.26
C      11.39      31.67      28.39
C       8.77      27.44      30.83
C       4.15      29.00       5.21
C       3.38      28.90       7.47
C       3.01      30.26       7.44
C       3.76      30.36       5.15
C       3.85      30.92       2.86
C       5.37      31.69       1.19
C       2.94      32.25       1.10
C       4.99      28.38       4.30
C       2.38      30.83       8.53
C      16.94       6.97      30.76
C      16.17       7.07      28.50
C      15.80       5.71      28.53
C      16.56       5.60      30.81
C      16.66       5.04      33.10
C      18.18       4.28      34.77
C      15.76       3.69       0.08
C      17.78       7.58      31.67
C      15.17       5.13      27.43
C      18.41       1.18      18.71
C      20.49       2.37      18.45
C      20.69       1.81      17.17
C      18.58       0.66      17.39
C      16.51      34.51      16.76
C      15.16      32.57      17.09
C      15.07      33.87      14.96
C      17.51       0.63      19.61
C      21.85       2.01      16.42
C       5.62       0.00      17.26
C       7.70      33.60      17.52
C       7.90      34.15      18.80
C       5.79       0.53      18.57
C       3.71       1.46      19.21
C       2.36       3.40      18.88
C       2.28       2.10      21.01
C       4.71       0.55      16.36
C       9.05      33.95      19.55
C      24.81      17.26       1.18
C       1.30      17.52       2.37
C       1.50      18.80       1.81
C      24.98      18.57       0.66
C      22.91      19.21      34.51
C      21.56      18.88      32.57
C      21.47      21.01      33.87
C      23.90      16.36       0.63
C       2.66      19.55       2.01
C      12.01      18.71       0.00
C      14.09      18.45      33.60
C      14.29      17.17      34.16
C      12.18      17.39       0.53
C      10.11      16.76       1.45
C       8.76      17.08       3.39
C       8.67      14.96       2.08
C      11.11      19.60       0.55
C      15.45      16.42      33.96
N       4.23      34.75      15.31
N       1.87      32.02       8.55
N      22.18       1.15      15.53
N      24.03       3.98       8.83
N      17.03       1.22      20.66
N      14.66       3.94      27.41
N       9.38       0.04      20.44
N      11.23      31.98      27.14
N      10.63      20.65      34.74
N       8.26      27.41      32.02
N       2.99      20.44       1.15
N       4.84      27.14       3.99
N      23.43      15.31       1.22
N      21.06       8.55       3.94
N      15.78      15.53       0.04
N      17.63       8.83      31.98
N      23.15       6.38       7.62
N      22.40       6.27       5.04
N      23.13       4.11       4.79
N      23.31       1.96       4.03
N      10.36      29.59      28.34
N       9.61      29.70      30.93
N      10.33      31.86      31.17
N      10.51      34.01      31.94
N       3.96      28.34       6.38
N       3.21      30.93       6.27
N       3.94      31.17       4.11
N       4.12      31.94       1.96
N      16.74       7.63      29.59
N      16.01       5.04      29.70
N      16.75       4.79      31.85
N      16.93       4.02      34.00
N      19.40       2.00      19.17
N      19.71       0.98      16.71
N      17.79      34.55      16.81
N      15.89      33.44      16.13
N       6.60      33.96      16.79
N       6.92       0.21      19.25
N       4.99       1.42      19.16
N       3.10       2.52      19.84
N       0.20      16.80       2.01
N       0.52      19.25       0.97
N      24.19      19.16      34.55
N      22.29      19.84      33.44
N      13.00      19.17      33.96
N      13.31      16.71       0.21
N      11.39      16.80       1.41
N       9.49      16.12       2.51
