11

O       8.32       8.77       5.98
C       5.63       7.57       9.07
C       7.82       7.08       8.43
Zn       6.52       9.23       6.78
C       9.17       9.74       6.02
C       8.73      10.98       6.80
C       6.98      12.02       7.97
N       6.67       7.76       8.24
N       7.48      10.95       7.33
O       5.28       9.59       5.27
C       5.46      10.32       4.26
