26

H       8.88       5.11       2.66
H      10.37       6.19       4.77
H      10.47       1.93       4.91
H      12.35       2.12       5.97
H      10.99       6.11       6.94
H      15.91       3.10      12.25
H      14.42       2.03      10.14
H      14.32       6.29      10.00
H      12.44       6.10       8.94
H      13.79       2.11       7.97
C       9.42       4.63       3.47
C      10.16       5.16       4.49
C      10.25       2.94       4.58
C      11.56       4.11       6.33
C      12.35       2.99       6.63
C      11.61       5.24       7.16
C      15.36       3.59      11.44
C      14.63       3.06      10.42
C      14.53       5.28      10.34
C      13.22       4.11       8.59
C      12.43       5.23       8.28
C      13.17       2.98       7.76
N       9.48       3.24       3.54
N      10.70       4.08       5.20
N      15.31       4.97      11.36
N      14.09       4.14       9.71
