246

Cu      -0.00      15.43       1.00
Cu      -4.05       8.42       1.00
Cu       4.05       8.42       1.00
Cu       9.31       0.71      10.77
Cu      13.36       7.71      10.77
Cu       5.27       7.71      10.77
Cu      13.36       7.72      18.55
Cu       9.31       0.70      18.55
Cu       5.26       7.72      18.55
Cu      -4.04       8.42       8.78
Cu      -0.00      15.43       8.78
Cu       4.04       8.42       8.78
Si       3.77       2.18       4.89
Si      14.86       2.18       4.89
Si       9.31      11.78       4.89
Si       5.54      13.96      14.66
Si      -5.54      13.96      14.66
Si      -0.00       4.35      14.66
H       5.93       0.92       3.19
H       1.50       2.64       4.00
H      14.86       4.67       3.19
H       6.27      16.12       4.00
H       7.15      10.54       3.19
H      -7.78      13.51       4.00
H       3.39      15.21      12.96
H       7.81      13.49      13.77
H      -5.55      11.46      12.96
H       3.04       0.02      13.77
H       2.17       5.59      12.96
H      17.09       2.62      13.77
H      -2.17       5.59      16.36
H       1.54       2.62      15.55
H      -3.39      15.21      16.36
H      10.82      13.49      15.55
H       5.55      11.46      16.36
H      15.58       0.02      15.55
H      11.48      10.54       6.58
H       7.77      13.51       5.78
H      12.70       0.92       6.58
H      -1.50       2.64       5.78
H       3.76       4.67       6.58
H      -6.27      16.12       5.78
H       3.39      15.21      16.36
H       7.81      13.49      15.55
H      -5.55      11.46      16.36
H       3.04       0.02      15.55
H       2.17       5.59      16.36
H      17.09       2.62      15.55
H       5.93       0.92       6.58
H       1.50       2.64       5.78
H      14.86       4.67       6.58
H       6.27      16.12       5.78
H       7.15      10.54       6.58
H      -7.78      13.51       5.78
H      11.48      10.54       3.19
H       7.78      13.51       4.00
H      12.70       0.92       3.19
H      -1.50       2.64       4.00
H       3.76       4.67       3.19
H      -6.27      16.12       4.00
H      -2.17       5.59      12.96
H       1.54       2.62      13.77
H      -3.39      15.21      12.96
H      10.82      13.49      13.77
H       5.55      11.46      12.96
H      15.58       0.02      13.77
H       6.75       3.90       0.21
H      11.88       3.90       0.21
H       9.31       8.34       0.21
H       2.56      12.24       9.99
H      -2.56      12.24       9.99
H      -0.00       7.79       9.99
H      -0.00       7.79      19.33
H      -2.56      12.24      19.33
H       2.56      12.24      19.33
H       9.31       8.34       9.56
H      11.88       3.90       9.56
H       6.75       3.90       9.56
H       2.09       4.06       4.89
H       4.75      15.92       4.89
H      -6.84      12.29       4.89
H       7.22      12.08      14.66
H       4.56       0.22      14.66
H      16.16       3.84      14.66
H       2.47       3.84      14.66
H      11.40      12.08      14.66
H      14.06       0.22      14.66
H       6.84      12.29       4.89
H      -2.09       4.06       4.89
H      -4.75      15.92       4.89
C       5.71       1.91       2.78
C       6.44       2.32       1.66
C       7.50       1.45       1.07
C      14.12       3.99       2.78
C      13.39       4.42       1.66
C      13.62       5.77       1.07
C       8.11      10.24       2.78
C       8.10       9.40       1.66
C       6.82       8.91       1.07
C       3.60      14.23      12.55
C       2.87      13.81      11.43
C       1.81      14.68      10.83
C      -4.81      12.14      12.55
C      -4.08      11.72      11.43
C      -4.31      10.37      10.83
C       1.21       5.90      12.55
C       1.21       6.74      11.43
C       2.49       7.22      10.83
C      -1.20       5.90      16.77
C      -1.21       6.74      17.89
C      -2.50       7.22      18.48
C      -3.60      14.23      16.77
C      -2.87      13.81      17.89
C      -1.81      14.69      18.48
C       4.81      12.14      16.77
C       4.08      11.72      17.89
C       4.31      10.36      18.48
C      10.52      10.23       6.99
C      10.52       9.40       8.12
C      11.80       8.91       8.71
C      12.91       1.91       6.99
C      12.18       2.32       8.12
C      11.13       1.45       8.71
C       4.51       3.99       6.99
C       5.23       4.42       8.12
C       5.01       5.77       8.71
C       3.60      14.23      16.77
C       2.87      13.81      17.89
C       1.81      14.69      18.48
C      -4.81      12.14      16.77
C      -4.08      11.72      17.89
C      -4.31      10.36      18.48
C       1.20       5.90      16.77
C       1.21       6.74      17.89
C       2.50       7.22      18.48
C       5.71       1.91       6.99
C       6.44       2.32       8.12
C       7.50       1.45       8.71
C      14.12       3.99       6.99
C      13.39       4.42       8.12
C      13.62       5.77       8.71
C       8.11      10.23       6.99
C       8.10       9.40       8.12
C       6.82       8.91       8.71
C      10.52      10.24       2.78
C      10.52       9.40       1.66
C      11.81       8.91       1.07
C      12.91       1.91       2.78
C      12.18       2.32       1.66
C      11.12       1.45       1.07
C       4.50       3.99       2.78
C       5.23       4.42       1.66
C       5.00       5.77       1.07
C      -1.21       5.90      12.55
C      -1.21       6.74      11.43
C      -2.49       7.22      10.83
C      -3.60      14.23      12.55
C      -2.87      13.81      11.43
C      -1.81      14.68      10.83
C       4.81      12.14      12.55
C       4.08      11.72      11.43
C       4.31      10.37      10.83
C       4.72       2.73       3.35
C       6.19       3.57       1.09
C      13.90       2.73       3.35
C      12.44       3.57       1.09
C       9.31      10.68       3.35
C       9.31       8.99       1.09
C       4.59      13.41      13.13
C       3.12      12.56      10.86
C      -4.59      13.41      13.13
C      -3.12      12.56      10.86
C      -0.00       5.46      13.13
C      -0.00       7.15      10.86
C      -0.00       5.45      16.19
C      -0.00       7.15      18.46
C      -4.59      13.41      16.19
C      -3.12      12.56      18.46
C       4.59      13.41      16.19
C       3.12      12.56      18.46
C       9.31      10.68       6.42
C       9.31       8.99       8.69
C      13.90       2.73       6.42
C      12.44       3.57       8.69
C       4.72       2.73       6.42
C       6.19       3.57       8.69
C       2.07       2.96       4.89
C      15.03       0.31       4.89
C      10.84      12.86       4.89
C       7.25      13.17      14.66
C      -5.71      15.83      14.66
C      -1.53       3.27      14.66
C       1.53       3.27      14.66
C      -7.25      13.17      14.66
C       5.71      15.83      14.66
C       7.78      12.86       4.89
C      16.56       2.96       4.89
C       3.60       0.31       4.89
O       7.91       0.46       1.77
O       7.92       1.77      19.45
O      14.27       6.62       1.77
O      13.13       5.98      19.45
O       5.76       9.05       1.77
O       6.88       8.39      19.45
O       1.41      15.68      11.53
O       1.39      14.36       9.67
O      -4.97       9.51      11.53
O      -3.81      10.16       9.67
O       3.56       7.08      11.53
O       2.42       7.75       9.67
O      -3.56       7.08      17.77
O      -2.43       7.75       0.10
O      -1.40      15.67      17.77
O      -1.39      14.37       0.10
O       4.96       9.51      17.77
O       3.82      10.16       0.10
O      12.87       9.06       8.02
O      11.73       8.38       9.88
O      10.72       0.46       8.02
O      10.70       1.78       9.88
O       4.35       6.62       8.02
O       5.50       5.97       9.88
O       1.40      15.67      17.77
O       1.39      14.37       0.10
O      -4.96       9.51      17.77
O      -3.82      10.16       0.10
O       3.56       7.08      17.77
O       2.43       7.75       0.10
O       7.90       0.46       8.02
O       7.92       1.78       9.88
O      14.28       6.62       8.02
O      13.12       5.97       9.88
O       5.75       9.06       8.02
O       6.89       8.38       9.88
O      12.87       9.05       1.77
O      11.74       8.39      19.45
O      10.71       0.46       1.77
O      10.70       1.77      19.45
O       4.35       6.62       1.77
O       5.49       5.98      19.45
O      -3.56       7.08      11.53
O      -2.42       7.75       9.67
O      -1.41      15.68      11.53
O      -1.39      14.36       9.67
O       4.97       9.51      11.53
O       3.81      10.16       9.67
