344

C       0.56      15.22       7.24
C       0.30      15.56       5.88
C       0.19      14.61       4.84
C       0.28      13.22       5.14
C       0.58      12.83       6.47
C       0.73      13.82       7.48
C       0.66       0.52       8.30
C       0.73       1.92       8.03
C       0.84       2.91       9.04
C       0.88       2.53      10.40
C       0.81       1.14      10.73
C       0.70       0.19       9.69
C       0.63       0.39      38.43
C       0.30       0.10      37.07
C       1.26      15.65      36.04
C       2.64       0.07      36.34
C       3.02       0.40      37.67
C       2.02       0.57      38.67
C      15.32       0.50      39.48
C      13.92       0.58      39.20
C      12.93       0.70      40.20
C      13.31       0.73      41.57
C      14.69       0.65      41.90
C      15.65       0.54      40.87
C      15.35      15.42      55.19
C      15.60       0.07      56.55
C       0.16      14.78      57.55
C       0.24      13.41      57.20
C      15.54      13.03      55.88
C      15.23      14.03      54.92
C      15.31       0.73      54.15
C      15.09       2.11      54.43
C      15.36       3.14      53.51
C       0.02       2.82      52.17
C       0.06       1.44      51.79
C      15.59       0.44      52.78
C      15.55       0.41      24.00
C       0.18       0.19      25.37
C      14.87      15.64      26.37
C      13.50      15.60      26.00
C      13.15       0.26      24.66
C      14.16       0.53      23.71
C       0.87       0.44      22.96
C       2.24       0.66      23.25
C       3.28       0.40      22.33
C       2.95       0.06      20.98
C       1.58       0.01      20.61
C       0.58       0.16      21.59
C       0.80      15.68      14.19
C      15.60      15.08      15.13
C       0.07      15.30      16.53
C       1.10       0.44      17.04
C       1.98       1.03      16.09
C       1.84       0.80      14.71
C      13.84      13.89      16.97
C      13.69      13.67      15.58
C      12.98      13.34      18.05
C      12.24      14.44      18.85
C      12.64      12.82      14.95
C      12.99      11.31      15.03
C       0.69      15.47      12.81
C       1.30       0.72      18.39
C       0.13       0.65      45.38
C       0.75      15.47      46.33
C       0.51      15.62      47.73
C      15.34       0.96      48.22
C      14.74       1.82      47.27
C      14.98       1.68      45.89
C       1.96      13.75      48.18
C       2.19      13.59      46.79
C       2.53      12.91      49.27
C       1.44      12.14      50.06
C       3.07      12.57      46.17
C       4.57      12.95      46.26
C       0.35       0.55      43.99
C      15.05       1.16      49.57
C       0.56      15.12       1.27
C       1.56      15.35       0.28
C       1.25      15.34      61.63
C      15.61      15.11      61.17
C      14.62      14.90      62.16
C      14.92      14.91       0.81
C       3.57       0.10      61.11
C       3.88       0.10      62.50
C       4.54       0.33      60.01
C       4.86       1.82      59.81
C       5.23       0.30       0.37
C       5.74      14.73       1.11
C       0.89      15.08       2.64
C      15.23      15.06      59.82
C       0.08      15.65      32.63
C      15.60       1.11      31.80
C       0.07       1.02      30.39
C       0.39      15.47      29.77
C       0.57      14.34      30.60
C       0.41      14.42      32.00
C      15.29       3.38      30.19
C      15.15       3.47      31.60
C      15.13       4.50      29.23
C      13.65       4.83      28.94
C      14.87       4.71      32.37
C       0.37       5.13      33.27
C      15.59       0.01      34.01
C       0.56      15.38      28.38
C       1.06       9.32       7.75
C       1.63       8.55       8.79
C       1.57       7.13       8.77
C       0.93       6.43       7.71
C       0.43       7.21       6.64
C       0.49       8.62       6.66
C       2.92       7.05      10.78
C       2.95       8.47      10.81
C       3.61       6.14      11.73
C       4.62       5.21      11.04
C       3.66       9.30      11.82
C       2.91       9.38      13.17
C       1.08      10.74       7.78
C       0.79       5.03       7.65
C       6.52       0.92      38.94
C       7.30       1.50      39.98
C       8.72       1.44      39.95
C       9.41       0.81      38.88
C       8.62       0.30      37.82
C       7.22       0.35      37.85
C       8.80       2.79      41.96
C       7.38       2.82      42.00
C       9.72       3.49      42.90
C      10.64       4.52      42.20
C       6.56       3.53      43.02
C       6.50       2.77      44.36
C       5.10       0.93      38.99
C      10.82       0.66      38.82
C      15.10       9.60      54.55
C      14.07       8.64      54.38
C      14.37       7.26      54.23
C       0.03       6.82      54.13
C       1.05       7.78      54.28
C       0.76       9.13      54.55
C      12.01       6.77      54.14
C      11.71       8.15      54.30
C      11.02       5.66      54.01
C      11.10       4.65      55.18
C      10.35       8.73      54.36
C       9.70       8.89      52.97
C      14.85      10.98      54.64
C       0.38       5.49      53.79
C       9.73       0.67      23.30
C       8.78       1.70      23.11
C       7.40       1.40      22.99
C       6.95       0.06      22.92
C       7.92      14.72      23.07
C       9.27      15.02      23.33
C       6.90       3.76      22.85
C       8.28       4.06      23.00
C       5.79       4.75      22.72
C       4.80       4.69      23.90
C       8.87       5.42      23.03
C       9.01       6.04      21.62
C      11.12       0.92      23.38
C       5.62      15.38      22.60
H       0.14       0.85       5.61
H       0.61      14.90       9.98
H       0.89       4.42      11.20
H       0.93       3.24      12.33
H       0.13      11.34       4.33
H      15.52      12.55       3.25
H       0.98      13.49       8.40
H       0.78       2.26       7.08
H      15.01      15.59      36.81
H       0.94       0.44      41.17
H      11.41       0.76      42.36
H      12.59       0.79      43.50
H       4.54      15.66      35.55
H       3.35      15.36      34.45
H       2.34       0.84      39.59
H      13.60       0.63      38.24
H       0.02       1.04      56.84
H       0.06      15.16      52.48
H      15.66       4.71      51.38
H       0.45       3.57      50.30
H       0.66      11.53      57.90
H       0.90      12.72      59.01
H      14.99      13.71      53.98
H      14.81       2.39      55.37
H       1.15       0.10      25.67
H      15.30      15.68      21.29
H       4.85       0.13      20.20
H       3.72      15.34      19.12
H      11.59      15.29      26.69
H      12.76      15.08      27.84
H      13.85       0.76      22.76
H       2.52       0.93      24.19
H       2.51       1.24      14.08
H       2.75       1.63      16.41
H      13.62      12.78      18.74
H      12.24      12.64      17.67
H      12.94      15.11      19.34
H      11.61      13.98      19.61
H      11.60      15.02      18.18
H      12.54      13.08      13.89
H      11.67      13.01      15.41
H      13.08      10.98      16.07
H      13.92      11.11      14.51
H      12.19      10.73      14.56
H       0.09      14.76      12.47
H       1.66       1.62      18.63
H      14.53       2.34      45.25
H      14.12       2.58      47.57
H       3.07      13.56      49.96
H       3.24      12.18      48.89
H       0.75      12.84      50.55
H       1.91      11.53      50.83
H       0.88      11.49      49.39
H       2.82      12.46      45.11
H       2.90      11.60      46.63
H       4.89      13.06      47.30
H       4.75      13.89      45.74
H       5.17      12.17      45.79
H       1.08      15.65      43.67
H      14.15       1.52      49.80
H      14.17      14.73       1.47
H      13.64      14.73      61.90
H       4.12      15.63      59.07
H       5.46      15.45      60.19
H       3.96       2.38      59.56
H       5.58       1.94      58.99
H       5.30       2.26      60.71
H       5.17       1.13       1.07
H       5.97       0.57      62.35
H       5.80      13.88       0.42
H       5.07      14.47       1.93
H       6.73      14.92       1.51
H       1.81      14.80       2.87
H      14.30      14.75      59.61
H       0.53      13.57      32.55
H       0.80      13.43      30.19
H      15.60       4.24      28.27
H      15.65       5.39      29.60
H      13.15       3.96      28.51
H      13.58       5.65      28.23
H      13.12       5.11      29.85
H      13.99       4.54      33.00
H      14.64       5.55      31.72
H       0.59       4.35      34.01
H       0.13       6.05      33.80
H       1.26       5.30      32.66
H      14.96       0.70      34.37
H       1.23      14.72      28.05
H       0.07       9.13       5.88
H      15.66       6.77       5.84
H       2.86       5.53      12.24
H       4.15       6.69      12.51
H       4.12       4.55      10.32
H       5.13       4.59      11.78
H       5.38       5.80      10.51
H       3.77      10.33      11.45
H       4.67       8.92      11.97
H       2.79       8.39      13.61
H       1.92       9.82      13.02
H       3.47      10.00      13.87
H       1.43      11.22       8.62
H       0.42       4.60       6.80
H       6.71      15.61      37.08
H       9.07      15.53      37.02
H      10.34       2.75      43.41
H       9.17       4.03      43.68
H      11.29       4.02      41.48
H      11.26       5.02      42.94
H      10.04       5.27      41.68
H       5.53       3.63      42.65
H       6.94       4.54      43.17
H       7.49       2.66      44.80
H       6.06       1.78      44.22
H       5.88       3.33      45.07
H       4.63       1.28      39.82
H      11.24       0.30      37.96
H       1.54       9.79      54.64
H       2.04       7.51      54.22
H      11.21       5.13      53.07
H      10.00       6.03      53.96
H      12.08       4.18      55.21
H      10.34       3.88      55.05
H      10.92       5.16      56.13
H      10.39       9.73      54.82
H       9.71       8.13      55.01
H       9.60       7.92      52.47
H      10.31       9.55      52.34
H       8.71       9.32      53.07
H      13.96      11.36      54.31
H       1.32       5.32      53.42
H       9.93      14.24      23.42
H       7.64      13.73      23.03
H       5.25       4.54      21.79
H       6.17       5.77      22.65
H       4.32       3.71      23.96
H       4.02       5.44      23.77
H       5.32       4.88      24.84
H       9.87       5.38      23.47
H       8.27       6.07      23.67
H       8.04       6.13      21.13
H       9.66       5.42      21.00
H       9.45       7.04      21.70
H      11.51       1.80      23.03
H       5.45      14.43      22.24
N       0.09      12.29       4.15
N       0.94       3.47      11.39
N       0.87       0.81      12.02
N       0.92       4.24       8.74
N       0.71      11.50       6.73
N      15.68      15.05       3.59
N       3.58      15.59      35.37
N      12.36       0.80      42.56
N      15.02       0.71      43.20
N      11.61       0.79      39.91
N       4.34       0.55      37.94
N       0.91      15.38      34.77
N       0.60      12.47      58.12
N       0.19       3.78      51.22
N       0.25       1.08      50.51
N      15.30       4.41      54.02
N      15.52      11.71      55.57
N       0.36      15.20      58.81
N      12.54      15.32      26.92
N       3.92      15.58      20.03
N       1.22      15.52      19.33
N       4.54       0.47      22.83
N      11.83       0.28      24.33
N      15.17      15.53      27.67
N      14.86      14.70      17.37
N      14.57      14.28      14.74
N       1.13      14.76      48.57
N       1.57      14.46      45.94
N       2.28      15.56      60.76
N       2.86      15.57       0.63
N      15.59       2.16      29.67
N      15.31       2.33      32.32
N       2.22       6.47       9.77
N       2.32       9.13       9.81
N       9.38       2.10      40.94
N       6.72       2.18      41.00
N      13.32       6.41      54.10
N      12.76       9.00      54.41
N       6.54       2.45      22.85
N       9.14       3.01      23.12
