32

Cd      14.68       2.37       3.67
Cd      18.19       3.65       2.62
Cl      16.18       2.30       1.49
Cd      11.82       0.93       5.50
Cl      13.78       0.02       4.01
Cd      21.05       2.22       4.44
Cl       9.81       2.30       6.63
Cl      20.15       4.56       4.10
C      11.70       3.83       2.03
C      18.07       0.75       6.08
C      17.92       6.05       0.35
C      20.06       5.19       0.49
C      11.54      -1.46       7.76
C      13.69      -0.61       7.63
N      12.42       3.05       2.88
N      11.50       2.42       3.62
N      10.29       2.80       3.24
N      10.38       3.69       2.25
N      16.39       6.32       2.99
N      16.44       5.07       3.42
N      15.20       4.64       3.70
N      14.32       5.60       3.45
N      18.79       1.54       5.24
N      17.87       2.16       4.49
N      16.66       1.78       4.87
N      16.74       0.90       5.86
N      10.02      -1.74       5.12
N      10.07      -0.48       4.69
N       8.83      -0.05       4.41
N       7.95      -1.01       4.66
N      18.77       5.16       0.89
N      12.40      -0.57       7.22
