32

N      11.13      -1.62      11.56
Cd       4.40      -5.00      12.56
Cd      13.63      -6.28      13.61
Cd      10.77      -4.85      11.78
Cd       7.27      -3.57      10.73
Cl      15.64      -4.93      14.74
Cl       5.30      -2.65      12.21
Cl       9.27      -4.93       9.60
Cl      11.67      -7.20      12.12
C      13.90      -8.69      15.87
C      11.76      -7.83      15.74
C       7.54      -1.17       8.46
C       5.39      -2.03       8.60
C       7.38      -6.47      14.19
C      13.75      -3.38      10.14
N      13.05      -7.79      15.33
N       6.68      -2.06       9.00
N       6.66      -5.68      13.35
N       7.58      -5.05      12.60
N       8.79      -5.44      12.99
N       8.71      -6.32      13.98
N      15.43      -8.95      13.23
N      15.37      -7.70      12.80
N      16.62      -7.27      12.52
N      17.50      -8.23      12.78
N      13.03      -4.17      10.99
N      13.95      -4.79      11.74
N      15.16      -4.42      11.35
N      15.08      -3.54      10.36
N       9.06      -0.90      11.11
N       9.01      -2.15      11.53
N      10.26      -2.58      11.81
