400

H      21.40      24.04      29.11
H      19.60      27.85      28.90
H      17.90      24.66      26.86
H      22.17      24.97      31.12
H      24.15      28.46      32.38
H      21.67      28.58      29.03
H      23.82       1.54      31.20
H      17.95      28.05      26.86
H      18.77      22.55      26.92
H      23.85      24.94       0.01
H       7.34       4.51      29.10
H       9.15       0.70      28.94
H      10.88       3.88      26.90
H       6.56       3.58      31.12
H       4.57       0.09      32.36
H       7.07      -0.02      29.02
H       4.91      27.00      31.18
H      10.82       0.42      27.04
H       9.99       5.98      26.93
H       4.75       3.75       0.01
H       9.56      21.79      12.70
H      13.37      23.60      12.49
H      10.18      25.30      10.45
H      10.50      21.03      14.71
H      13.98      19.05      15.97
H      14.10      21.53      12.62
H      16.11      19.39      14.79
H      13.57      25.26      10.44
H       8.08      24.42      10.50
H      10.39      19.29      16.41
H      19.07       6.83      12.71
H      15.26       5.02      12.55
H      18.43       3.29      10.51
H      18.14       7.61      14.72
H      14.65       9.61      15.97
H      14.53       7.10      12.63
H      12.53       9.27      14.79
H      14.97       3.35      10.65
H      20.54       4.17      10.54
H      18.24       9.37      16.41
H       6.86      19.01      27.00
H       5.09      15.19      27.27
H       3.37      18.39      29.28
H       7.53      18.06      24.95
H       9.49      14.58      23.64
H       7.18      14.49      27.12
H       9.25      12.48      24.87
H       3.43      14.99      29.30
H       4.24      20.50      29.20
H       8.75      18.10      22.93
H      21.86       9.52      27.01
H      23.64      13.34      27.21
H      25.39      10.15      29.22
H      21.16      10.47      24.95
H      19.20      13.96      23.67
H      21.54      14.04      27.13
H      19.46      16.06      24.90
H      25.33      13.62      29.09
H      24.52       8.04      29.18
H      19.92      10.44      22.94
H      24.09      21.34      10.60
H      27.91      19.56      10.86
H      24.71      17.84      12.87
H      25.03      22.01       8.55
H      28.52      23.97       7.24
H      28.61      21.65      10.71
H       1.59      23.71       8.47
H      28.11      17.90      12.89
H      22.60      18.71      12.80
H      25.00      23.23       6.52
H       4.54       7.30      10.61
H       0.73       9.07      10.83
H       3.92      10.83      12.83
H       3.60       6.60       8.57
H       0.11       4.63       7.28
H       0.03       6.97      10.73
H      27.04       4.89       8.51
H       0.45      10.76      12.71
H       6.03       9.95      12.78
H       3.64       5.35       6.56
C      20.73      26.06      29.12
C      20.66      24.66      28.79
C      19.65      24.12      27.95
C      18.65      25.01      27.46
C      18.66      26.37      27.78
C      19.68      26.87      28.60
C      21.72      26.67      29.94
C      22.40      25.96      30.97
C      23.28      26.59      31.89
C      23.52      27.98      31.73
C      22.92      28.74      30.70
C      22.04      28.05      29.82
C      23.17       1.09      30.56
C      17.68      27.23      27.34
C      19.56      22.78      27.52
C      23.78      25.92       0.12
C       8.02       2.49      29.12
C       8.09       3.88      28.79
C       9.11       4.42      27.96
C      10.12       3.53      27.50
C      10.11       2.17      27.83
C       9.07       1.67      28.63
C       7.01       1.88      29.94
C       6.33       2.59      30.96
C       5.45       1.95      31.87
C       5.20       0.56      31.71
C       5.81      28.85      30.68
C       6.69       0.50      29.81
C       5.57      27.46      30.54
C      11.09       1.30      27.41
C       9.19       5.76      27.52
C       4.82       2.76       0.11
C      11.58      22.47      12.71
C      10.19      22.54      12.38
C       9.65      23.55      11.54
C      10.53      24.55      11.05
C      11.90      24.54      11.38
C      12.40      23.52      12.20
C      12.19      21.47      13.53
C      11.48      20.80      14.56
C      12.12      19.92      15.48
C      13.51      19.68      15.32
C      14.26      20.29      14.29
C      13.57      21.15      13.41
C      15.65      20.04      14.15
C      12.75      25.52      10.94
C       8.30      23.63      11.10
C      11.38      19.36      16.51
C      17.05       6.15      12.73
C      18.44       6.08      12.40
C      18.98       5.06      11.57
C      18.09       4.05      11.11
C      16.73       4.06      11.44
C      16.23       5.10      12.24
C      16.44       7.16      13.55
C      17.15       7.84      14.57
C      16.51       8.72      15.48
C      15.13       8.97      15.32
C      14.37       8.36      14.29
C      15.06       7.48      13.42
C      12.98       8.61      14.15
C      15.86       3.08      11.03
C      20.32       4.97      11.13
C      17.25       9.29      16.52
C       6.19      16.99      27.03
C       6.13      18.39      27.34
C       5.12      18.93      28.18
C       4.12      18.05      28.68
C       4.14      16.68      28.37
C       5.17      16.17      27.56
C       7.18      16.38      26.18
C       7.79      17.09      25.11
C       8.63      16.45      24.16
C       8.90      15.06      24.33
C       8.36      14.32      25.40
C       7.52      15.01      26.31
C       8.61      12.93      25.53
C       3.16      15.82      28.81
C       5.03      20.28      28.61
C       9.08      17.17      23.05
C      22.53      11.54      27.01
C      22.61      10.15      27.32
C      23.63       9.61      28.16
C      24.63      10.50      28.63
C      24.62      11.86      28.31
C      23.57      12.36      27.51
C      21.53      12.14      26.18
C      20.91      11.44      25.12
C      20.06      12.09      24.18
C      19.79      13.47      24.35
C      20.35      14.21      25.42
C      21.19      13.52      26.32
C      20.10      15.60      25.56
C      25.60      12.73      28.72
C      23.72       8.26      28.59
C      19.60      11.37      23.07
C      26.11      20.67      10.61
C      24.71      20.60      10.93
C      24.17      19.59      11.78
C      25.06      18.60      12.27
C      26.43      18.61      11.96
C      26.93      19.64      11.14
C      26.71      21.65       9.77
C      26.01      22.27       8.70
C      26.65      23.11       7.75
C      28.03      23.38       7.92
C      28.78      22.83       9.00
C      28.09      22.00       9.90
C       1.13      23.08       9.13
C      27.28      17.63      12.40
C      22.82      19.50      12.20
C      25.93      23.57       6.65
C       2.53       7.96      10.62
C       3.92       8.04      10.93
C       4.45       9.06      11.77
C       3.57      10.06      12.24
C       2.20      10.05      11.92
C       1.70       9.00      11.12
C       1.92       6.97       9.79
C       2.62       6.35       8.72
C       1.98       5.50       7.78
C       0.60       5.23       7.96
C      28.89       5.78       9.03
C       0.54       6.62       9.92
C      27.50       5.53       9.16
C       1.33      11.03      12.33
C       5.80       9.16      12.20
C       2.70       5.04       6.67
C      15.45      27.91      27.67
C      14.65       1.12      27.42
C      13.33       0.68      27.65
C      14.14      27.47      27.93
C      13.82      26.24      28.22
C      14.97       2.37      27.20
C      13.43      27.75      11.27
C      15.68      28.55      11.01
C      15.24       0.84      11.24
C      12.99       0.03      11.52
C      11.76       0.35      11.81
C      16.92      28.24      10.80
C       0.93      15.15      28.48
C       0.12      12.90      28.74
C      27.84      13.35      28.50
C      28.65      15.59      28.22
C      28.34      16.82      27.93
C       0.44      11.66      28.95
C      27.95      15.40      12.08
C       1.17      14.59      12.34
C       0.72      13.27      12.11
C      27.51      14.08      11.83
C      26.28      13.77      11.55
C       2.41      14.91      12.54
C      24.68      25.87       2.31
C      26.43      25.96       3.96
C      25.85      24.87       4.66
C      24.10      24.78       3.01
C      22.99      24.21       2.67
C      27.51      26.57       4.34
C       3.92       2.80       2.30
C       2.18       2.69       3.95
C       2.76       3.77       4.66
C       4.51       3.87       3.02
C       5.62       4.45       2.68
C       1.09       2.09       4.33
C      11.34      18.43      18.70
C      11.44      16.68      20.33
C      10.36      17.25      21.05
C      10.26      19.01      19.41
C       9.68      20.13      19.08
C      12.06      15.59      20.71
C      17.31      10.16      18.71
C      17.22      11.90      20.37
C      18.30      11.32      21.07
C      18.39       9.57      19.41
C      18.97       8.46      19.06
C      16.61      12.98      20.77
C      22.89       5.94      28.73
C      21.84       3.80      28.35
C      22.63       3.19      29.35
C      23.67       5.32      29.75
C      24.52       5.91      30.53
C      20.95       3.15      27.65
C       5.86      22.61      28.73
C       6.90      24.75      28.32
C       6.11      25.36      29.33
C       5.08      23.23      29.75
C       4.23      22.64      30.54
C       7.77      25.40      27.61
C      20.50      20.33      12.33
C      18.35      21.37      11.93
C      17.74      20.58      12.93
C      19.88      19.55      13.35
C      20.47      18.71      14.15
C      17.70      22.24      11.22
C       8.13       8.33      12.33
C      10.27       7.27      11.94
C      10.89       8.07      12.94
C       8.76       9.12      13.34
C       8.17       9.97      14.12
C      10.92       6.39      11.25
C       8.36       8.09      27.38
C       7.32      10.23      27.78
C       8.10      10.84      26.77
C       9.13       8.70      26.35
C       9.96       8.11      25.55
C       6.45      10.88      28.49
C      20.39      20.44      27.39
C      21.40      18.29      27.81
C      20.62      17.69      26.79
C      19.61      19.83      26.36
C      18.79      20.43      25.56
C      22.27      17.64      28.52
C       5.97      22.81      10.97
C       3.82      21.79      11.38
C       3.22      22.56      10.36
C       5.36      23.57       9.94
C       5.96      24.39       9.13
C       3.17      20.93      12.10
C      22.65       5.80      11.00
C      24.80       6.83      11.40
C      25.40       6.05      10.39
C      23.27       5.02       9.97
C      22.67       4.18       9.18
C      25.45       7.70      12.11
N      15.65       0.21      27.45
N      13.14      28.39      27.91
N      15.25       3.46      27.01
N      13.54      25.16      28.47
N      16.49      27.09      27.80
N      12.31       1.52      27.76
N      14.76      27.56      11.04
N      13.91       1.03      11.51
N      18.02      27.95      10.61
N      10.68       0.62      12.07
N      12.62      26.71      11.40
N      16.07       1.86      11.37
N       1.12      13.82      28.71
N      27.66      14.67      28.24
N       0.71      10.56      29.14
N      28.06      17.90      27.67
N       1.97      15.96      28.36
N      26.82      12.51      28.38
N       0.25      15.59      12.30
N      28.43      13.09      11.85
N       3.51      15.19      12.73
N      25.19      13.49      11.30
N      27.14      16.44      11.95
N       1.55      12.25      11.99
N      25.81      26.41       2.83
N      24.71      24.34       4.14
N      28.47      27.10       4.68
N      22.00      23.69       2.37
N      24.17      26.45       1.23
N      26.41      24.38       5.77
N       2.79       2.25       2.82
N       3.90       4.30       4.15
N       0.13       1.55       4.67
N       6.61       4.96       2.38
N       4.42       2.22       1.21
N       2.21       4.25       5.78
N      11.89      17.30      19.21
N       9.83      18.40      20.54
N      12.59      14.64      21.04
N       9.17      21.11      18.79
N      11.92      18.94      17.61
N       9.88      16.69      22.16
N      16.77      11.29      19.24
N      18.83      10.17      20.55
N      16.08      13.94      21.12
N      19.48       7.48      18.75
N      16.72       9.67      17.63
N      18.79      11.86      22.19
N      22.00       5.12      28.10
N      23.50       3.99      30.00
N      20.17       2.57      27.04
N      25.28       6.41      31.24
N      22.89       7.23      28.29
N      22.53       1.86      29.64
N       6.74      23.42      28.08
N       5.24      24.56      29.99
N       8.54      25.98      26.99
N       3.49      22.15      31.26
N       5.85      21.31      28.29
N       6.20      26.69      29.62
N      19.68      21.21      11.68
N      18.55      19.72      13.60
N      17.12      23.01      10.60
N      20.97      17.97      14.87
N      21.79      20.32      11.89
N      16.42      20.67      13.22
N       8.94       7.44      11.70
N      10.08       8.95      13.60
N      11.50       5.61      10.64
N       7.67      10.73      14.83
N       6.84       8.33      11.90
N      12.21       7.98      13.23
N       7.48       8.90      28.03
N       8.96      10.03      26.09
N       5.68      11.47      29.11
N      10.70       7.60      24.83
N       8.37       6.79      27.82
N       8.01      12.16      26.47
N      21.25      19.63      28.05
N      19.77      18.50      26.11
N      23.03      17.05      29.15
N      18.06      20.93      24.83
N      20.38      21.74      27.83
N      20.71      16.37      26.50
N       5.15      21.94      11.63
N       4.04      23.41       9.69
N       2.58      20.17      12.73
N       6.47      25.12       8.40
N       7.27      22.81      11.41
N       1.90      22.47      10.07
N      23.47       6.67      11.65
N      24.59       5.18       9.72
N      26.03       8.47      12.73
N      22.17       3.44       8.46
N      21.36       5.79      11.44
N      26.73       6.14      10.10
