17

C      -0.45       4.66      15.93
H      -1.83       5.10      17.55
C      -1.93       3.59      21.37
O      -1.09       2.77      21.94
O      -0.52       5.85      15.41
C      -0.50       1.86      17.10
O       0.40       3.81      15.54
H      -0.65       0.95      17.71
H      -0.92       1.67      16.09
C      -1.64       3.89      19.99
H       0.60       2.00      17.04
C      -1.24       4.30      17.11
H      -1.77       1.89      19.45
C      -1.16       3.08      17.72
C      -1.62       2.90      19.10
O      -2.36       4.60      22.05
H      -1.44       4.92      19.71
