28

C       1.64       8.56      10.51
C       1.72      10.20       8.23
C       3.99       8.02      10.13
C       4.21      10.06       8.30
C       5.21       8.26       9.53
C       5.33       9.32       8.65
C       2.92       9.70       8.79
C       2.85       8.78       9.84
C       0.49       9.95       8.90
C       0.44       8.99       9.91
C      -0.70      10.63       8.57
C      -0.83       8.51      10.31
C      -1.93      10.26       9.10
C      -2.00       9.16       9.94
C       1.64      10.62       6.81
C       1.61       8.15      11.94
H       6.06       7.62       9.74
H       6.29       9.54       8.19
H       3.87       7.16      10.72
H       4.36      10.90       7.66
H      -0.93       7.67      10.96
H      -0.67      11.46       7.91
H      -2.82      10.80       8.84
H      -2.95       8.83      10.33
O       0.53      10.28       6.23
O       0.51       8.50      12.53
O       2.73      10.49       6.09
O       2.70       8.29      12.66
