17

C       5.05       4.52       2.82
C       4.07       5.30      -2.74
C       3.97       6.02      -0.47
H       3.90       3.90       1.09
O       4.97       3.36       3.34
O       5.89       5.39       3.21
C       4.62       7.27       1.64
C       4.34       5.06      -1.34
H       4.32       8.14       1.01
C       4.31       4.77       1.58
H       4.08       7.35       2.61
H       5.72       7.36       1.80
O       3.16       4.61      -3.29
O       4.44       6.43      -3.18
H       4.80       4.13      -1.03
C       4.29       5.96       0.96
H       3.51       6.93      -0.84
