14

H       8.17       0.05      17.58
H       7.85      -0.29      19.70
C       7.00       0.75      21.41
C       7.07      -0.83      15.93
O       5.91       0.39      21.99
O       5.92      -1.14      15.52
O       8.10       0.60      22.08
C       7.19      -0.03      17.13
H       5.34       1.50      19.53
C       6.10       0.45      17.76
C       7.06       0.38      20.02
O       8.11      -1.34      15.43
H       5.13       0.43      17.28
C       6.14       0.87      19.16
