23

O       0.28       0.87       3.51
O       0.19       1.36       0.26
O      -1.15      -0.34       0.95
O      -1.23      -1.92       3.66
Zn       1.27       1.39       1.90
Zn      -1.32      -0.12       2.93
Zn       1.44      -0.26       4.60
Zn      -0.24       2.44       4.57
O      -2.92       1.02       2.98
O       0.87      -2.14       4.56
O      -2.22       2.42       4.64
O       0.07       4.11       3.57
O       1.67       3.32       2.18
O       0.61       2.44       6.33
O       1.43       0.31       6.49
C      -0.86       0.62       0.14
C      -0.28      -2.60       4.20
C      -3.01       2.11       3.68
C       0.76       4.17       2.48
C       1.14       1.46       6.98
C       3.66      -0.15       2.64
O       2.99       0.47       1.73
O       3.25      -0.36       3.84
