23

Zn       9.86      10.15       6.84
Zn      11.28      11.37       4.19
C       9.71      10.57       1.81
Zn       9.71       8.60       4.03
O      13.21      11.28       3.85
O      14.09       9.59       5.11
C      10.29      13.06       6.32
O      10.57       6.89       3.52
Zn      12.42       8.67       5.64
O      12.39       6.86       4.89
C       7.54       8.48       6.08
O      11.06      10.04       8.40
O      12.59       8.56       7.59
C      14.17      10.73       4.51
C      11.62       6.33       4.01
C      12.18       9.40       8.47
O       9.28       9.47       2.32
O      10.50      11.41       2.39
O       9.55      12.10       6.75
O      10.97      13.03       5.23
O      10.83       9.72       5.17
O       7.99       8.17       4.92
O       8.13       9.24       6.94
