17

O       1.56       4.31       2.18
H       1.96       1.58       2.75
H       1.91      -1.19      -0.25
O       1.26       4.45      -0.03
O       1.22       1.84      -2.88
O       1.52      -0.37      -2.94
O       2.12      -0.76       3.61
O       2.77      -2.14       2.03
C       1.46       3.80       1.09
C       1.61       2.32       0.88
C       1.85       1.35       1.83
C       2.00       0.03       1.40
C       2.33      -1.06       2.44
C       1.87      -0.28       0.05
C       1.60       0.75      -0.84
C       1.44       0.67      -2.33
N       1.47       2.01      -0.41
