224

Ba       5.20       5.67      12.17
Ba       1.87      15.71       8.03
Ba       8.94       4.38       2.07
Ba      12.27      14.50      18.11
Ba       8.94      14.45       8.02
Ba      12.27       4.41      12.16
Ba       5.20      15.74      18.12
Ba       1.88       5.62       2.08
Cd       1.71       5.31      11.14
Cd       5.36      15.34       9.06
Cd      12.42       4.74       1.04
Cd       8.79      14.84      19.15
Cd      12.43      14.81       9.06
Cd       8.78       4.78      11.14
Cd       1.73      15.38      19.16
Cd       5.35       5.28       1.04
H       3.62       5.39      16.10
H       2.77       5.32      18.60
H       5.82       2.58       9.82
H       6.53       0.14       9.04
H       3.46      15.39       4.09
H       4.31      15.28       1.59
H       1.26      12.61      10.37
H       0.54      10.17      11.15
H      10.52       4.69       6.00
H      11.37       4.81       8.49
H       8.32       7.56      19.92
H       7.61       9.99      19.13
H      10.69      14.76      14.20
H       9.83      14.83      11.70
H      12.89      17.51       0.28
H      13.60      19.95       1.06
H      10.52      14.73       4.10
H      11.37      14.80       1.60
H       8.32      17.54      10.37
H       7.61      19.98      11.15
H      10.68       4.73      16.10
H       9.83       4.84      18.60
H      12.88       7.51       9.82
H      13.60       9.95       9.04
H       3.62      15.43      14.19
H       2.77      15.31      11.70
H       5.82      12.56       0.27
H       6.54      10.13       1.06
H       3.45       5.35       5.99
H       4.31       5.29       8.49
H       1.26       2.61      19.92
H       0.54       0.17      19.13
C       1.64       5.08      14.00
C       1.55       5.09      15.47
C       2.58       5.26      16.39
C       2.13       5.23      17.72
C       0.75       5.05      17.81
C      14.04       4.97      19.01
C       3.06       2.95      10.60
C       3.81       1.78      10.14
C       5.16       1.72       9.77
C       5.54       0.42       9.37
C       4.48      19.56       9.43
C       4.53      18.11       9.16
C       5.44      15.13       6.19
C       5.53      15.09       4.72
C       4.50      15.25       3.80
C       4.95      15.20       2.47
C       6.32      15.01       2.38
C       7.17      14.92       1.18
C       4.02      12.98       9.60
C       3.27      11.81      10.06
C       1.92      11.74      10.41
C       1.54      10.45      10.82
C       2.59       9.54      10.77
C       2.56       8.10      11.06
C      12.50       4.96       3.89
C      12.58       4.99       5.36
C      11.56       4.84       6.28
C      12.01       4.89       7.62
C      13.39       5.07       7.70
C       0.11       5.16       8.90
C      11.08       7.10       0.48
C      10.32       8.28       0.02
C       8.99       8.41      19.87
C       8.60       9.70      19.45
C       9.66      10.61      19.48
C       9.63      12.05      19.18
C       8.71      15.07      16.30
C       8.62      15.06      14.84
C       9.65      14.90      13.91
C       9.20      14.92      12.58
C       7.82      15.10      12.49
C       6.97      15.19      11.29
C      10.13      17.20      19.72
C      10.89      18.38      20.17
C      12.22      18.37       0.33
C      12.60      19.66       0.74
C      11.55       0.52       0.70
C      11.59       1.97       0.99
C      12.50      15.03       6.19
C      12.59      15.03       4.72
C      11.56      14.86       3.81
C      12.01      14.89       2.47
C      13.39      15.07       2.39
C       0.10      15.15       1.18
C      11.08      17.17       9.60
C      10.33      18.34      10.06
C       8.99      18.40      10.42
C       8.60      19.70      10.83
C       9.66       0.56      10.77
C       9.61       2.01      11.03
C       8.70       4.99      14.00
C       8.62       5.03      15.47
C       9.65       4.87      16.39
C       9.19       4.92      17.73
C       7.82       5.11      17.81
C       6.98       5.20      19.01
C      10.12       7.14      10.60
C      10.88       8.31      10.14
C      12.22       8.37       9.78
C      12.60       9.67       9.37
C      11.55      10.58       9.43
C      11.58      12.02       9.14
C       1.65      15.16      16.30
C       1.56      15.13      14.84
C       2.58      15.28      13.91
C       2.13      15.23      12.58
C       0.76      15.05      12.49
C      14.03      14.96      11.29
C       3.06      13.02      19.71
C       3.82      11.84      20.17
C       5.15      11.71       0.33
C       5.54      10.42       0.74
C       4.48       9.51       0.71
C       4.51       8.07       1.01
C       5.43       5.05       3.89
C       5.52       5.05       5.36
C       4.49       5.22       6.28
C       4.95       5.20       7.61
C       6.32       5.02       7.70
C       7.17       4.93       8.90
C       4.01       2.92       0.47
C       3.25       1.74       0.02
C       1.92       1.75      19.86
C       1.54       0.46      19.45
C       2.59      19.60      19.49
C       2.55      18.15      19.21
S       0.02       4.90      16.25
S       3.02       0.25       9.97
S       7.05      14.88       3.94
S       4.06      10.28      10.23
S      14.11       5.20       6.14
S      11.13       9.87      20.02
S       7.09      15.25      14.05
S      10.08      19.83       0.16
S      14.12      15.22       3.94
S      11.12      19.87      10.22
S       7.09       5.24      16.25
S      10.09       9.84       9.96
S       0.03      14.92      14.06
S       3.01      10.25       0.17
S       7.05       4.87       6.14
S       4.06       0.29      20.03
O       0.55       4.92      13.32
O       2.77       5.26      13.45
O      12.80       4.72      18.89
O       0.48       5.13      20.16
O       3.71       4.07      10.74
O       1.82       2.87      10.81
O       5.68      17.58       8.97
O       3.43      17.45       9.17
O       6.52      14.95       6.87
O       4.31      15.35       6.74
O       8.40      14.65       1.31
O       6.60      15.11       0.04
O       3.36      14.09       9.45
O       5.26      12.92       9.38
O       1.42       7.55      11.22
O       3.67       7.46      11.09
O      13.57       5.14       3.20
O      11.36       4.74       3.34
O       1.34       5.43       8.77
O      13.68       4.97      10.05
O      10.42       5.99       0.63
O      12.32       7.17       0.70
O       8.49      12.59      18.98
O      10.74      12.69      19.17
O       7.63      15.24      16.99
O       9.85      14.90      16.85
O       5.74      15.43      11.43
O       7.53      15.02      10.14
O      10.78      16.08      19.58
O       8.89      17.28      19.50
O      12.73       2.50       1.22
O      10.49       2.63       0.95
O      13.59      15.20       6.87
O      11.37      14.86       6.74
O       1.34      15.40       1.31
O      13.66      14.99       0.03
O      10.43      16.05       9.45
O      12.33      17.25       9.38
O       8.47       2.54      11.22
O      10.71       2.67      11.02
O       7.62       5.17      13.32
O       9.83       4.77      13.46
O       5.74       5.47      18.89
O       7.54       5.01      20.16
O      10.78       6.03      10.75
O       8.88       7.20      10.81
O      12.72      12.57       8.97
O      10.47      12.66       9.10
O       0.57      14.98      16.99
O       2.78      15.38      16.85
O      12.80      14.69      11.43
O       0.46      15.15      10.14
O       3.73      14.13      19.56
O       1.82      12.95      19.49
O       5.65       7.53       1.22
O       3.40       7.43       1.02
O       6.51       4.88       3.20
O       4.30       5.22       3.34
O       8.41       4.69       8.77
O       6.61       5.10      10.06
O       3.36       4.04       0.62
O       5.25       2.84       0.69
O       1.41      17.62      18.97
O       3.65      17.49      19.24
