68

Mn       2.59       5.37       2.36
Mn       1.64       0.28       4.50
Mn       3.65       1.96       6.90
Mn       3.42       3.27      13.60
Mn       4.36       8.36      11.46
Mn       2.35       6.68       9.06
P       5.52       3.97       1.04
P       6.25       1.16       4.90
P       0.50       4.70      14.92
P      -0.25       7.47      11.06
H      -0.16       4.27       1.46
H       6.02       2.50       2.61
H       4.96      -0.28       3.81
H       6.18       4.36      14.49
H      -0.03       6.15      13.35
H       1.04       8.92      12.14
C       2.67       7.96       3.38
C       1.24       7.47       3.63
C       1.68       2.69       2.84
C       2.53       3.03       4.07
C       2.30       4.06       8.13
C       3.63      -0.40       8.60
C       3.33       0.69      12.58
C       4.76       1.17      12.33
C       4.32       5.95      13.12
C       3.46       5.61      11.89
C       3.71       4.58       7.83
C       2.37       9.04       7.36
O       4.34       4.74       1.61
O       3.98       2.56      15.49
O       6.82       4.80       1.39
O       5.66       2.53       1.66
O       5.26       1.18       6.05
O      -0.10       0.97       5.38
O       6.35       2.53       4.16
O       5.92       0.02       3.86
O       3.47       7.14       2.86
O       2.94       9.16       3.73
O       0.99       6.27       3.32
O       0.42       8.31       4.13
O       1.48       3.66       2.02
O       1.23       1.52       2.73
O       3.03       4.17       4.19
O       2.66       2.06       4.91
O       2.04       2.87       7.77
O       1.50       4.87       8.70
O       4.01       0.78       8.71
O       3.40       8.51       9.43
O       1.69       3.95      14.34
O       2.03       6.09       0.47
O      -0.78       3.84      14.55
O       0.34       6.14      14.30
O       0.74       7.46       9.91
O       6.11       7.67      10.58
O      -0.35       6.11      11.81
O       0.08       8.61      12.10
O       2.53       1.51      13.10
O       3.06      -0.51      12.23
O       5.01       2.38      12.64
O       5.58       0.34      11.83
O       4.52       4.98      13.93
O       4.77       7.12      13.22
O       2.97       4.47      11.77
O       3.34       6.58      11.04
O       3.96       5.77       8.18
O       4.51       3.77       7.25
O       1.99       7.86       7.25
O       2.60       0.13       6.52
