25

In       2.83       8.51       0.96
In       7.57      13.22      -0.95
Co       5.20      10.86       0.00
C       3.68      11.21       2.45
C       0.45       8.06       1.85
C       5.86       8.51       1.57
C       6.73      10.52      -2.45
C       9.96      13.66      -1.85
C       4.54      13.21      -1.56
Br       3.33       6.89      -0.97
Br       7.08      14.83       0.98
O       2.71      10.45       2.16
O       4.78      11.38       1.81
O       3.67      10.07      -0.28
O       1.48       7.57       2.44
O       6.10       9.24       0.53
O       0.59       8.80       0.81
O       4.72       8.24       2.06
O       7.69      11.28      -2.17
O       5.63      10.34      -1.80
O       6.74      11.65       0.28
O       8.93      14.16      -2.44
O       4.30      12.48      -0.53
O       9.81      12.91      -0.82
O       5.68      13.48      -2.06
