130

C      12.29       0.68      24.79
C      10.88       0.82      24.79
C      10.82       0.82       1.47
C      12.22       0.64       1.54
C      12.81       0.49       2.84
C      12.02       0.49       4.03
C      10.63       0.72       3.90
C      10.04       0.88       2.64
C      10.17       0.88      23.57
C      10.84       0.78      22.34
C      12.24       0.63      22.28
C       0.02       0.62      23.52
C       0.95       1.91       0.30
C       2.37       1.87       0.27
C       2.34      12.27       0.18
C       0.92      12.26       0.24
C       3.07      11.07       0.11
C       2.41       9.83       0.14
C       1.00       9.77       0.24
C       0.27      10.99       0.27
C       0.33       3.19       0.34
C       1.08       4.39       0.38
C       2.49       4.30       0.36
C       3.13       3.06       0.31
C       0.13       0.63       0.26
C       3.13       0.60       0.18
C      10.09       0.93       0.18
C       0.53      12.14      11.85
C       0.72      10.74      11.90
C       0.71      10.76      14.43
C       0.55      12.17      14.45
C       0.48      12.80      15.74
C       0.58      12.08      16.96
C       0.74      10.68      16.86
C       0.80      10.03      15.63
C       0.83       9.99      10.72
C       0.71      10.60       9.47
C       0.46      11.98       9.35
C       0.40      12.74      10.55
C      12.14       0.83      13.14
C      12.16       2.25      13.06
C       1.75       2.27      13.01
C       1.79       0.85      13.11
C       2.95       3.01      12.95
C       4.19       2.37      13.02
C       4.27       0.97      13.14
C       3.07       0.22      13.17
C      10.87       0.18      13.20
C       9.66       0.92      13.21
C       9.72       2.33      13.13
C      10.96       2.98      13.05
C       0.51       0.03      13.14
C       0.49       3.03      12.97
C       0.83       9.99      13.17
C       0.46      12.65      18.29
C       0.77      12.24      20.67
C      12.84       0.41      20.99
C      12.61       0.86      18.62
C       1.32      11.28      21.65
C      12.50       0.13       5.32
C       0.76       0.68       7.36
C       0.18      12.49       8.03
C      11.93      11.95       5.99
C       1.75       1.58       8.00
C       0.42       8.49       0.37
C       0.25       6.39      25.02
C       0.51       5.68       0.38
C       0.59       7.77       1.57
C       0.14       5.74      23.70
C       5.56       0.39      13.26
C       7.63       0.08      12.06
C       8.36       0.34      13.25
C       6.29       0.58      14.45
C       8.26      12.81      10.74
H       3.07       5.15       0.37
H       4.15       3.03       0.28
H       4.09      11.07       0.05
H       2.97       8.98       0.11
H      12.17      10.94       0.34
H      12.23       3.26       0.33
H       0.89       0.32       2.92
H      10.02       0.73       4.72
H       9.03       1.01       2.59
H       1.04       0.56      23.50
H       9.15       0.98      23.56
H      10.27       0.77      21.49
H       3.72       0.63      25.11
H       3.81       0.56       1.04
H       9.33       0.13       0.16
H       9.57       1.89       0.17
H       8.87       2.90      13.11
H      10.97       4.00      12.99
H       2.93       4.03      12.87
H       5.04       2.95      12.99
H       3.14      12.13      13.25
H      10.82      12.09      13.24
H       0.39       0.90      15.78
H       0.78      10.08      17.70
H       0.91       9.01      15.61
H       0.20       0.82      10.49
H       0.98       8.97      10.75
H       0.78      10.00       8.64
H       0.46       3.59      12.03
H       0.50       3.74      13.80
H       1.79       9.48      13.18
H       0.04       9.23      13.17
H      12.13       1.40      17.90
H       1.81      10.44      21.15
H       0.53      10.88      22.29
H       2.07      11.77      22.27
H      11.27      11.32       5.53
H       2.15       2.29       7.28
H       2.58       1.00       8.40
H       1.27       2.14       8.81
H       0.86       8.24       2.43
H      12.88       6.47      22.91
H      12.23       5.03      23.71
H       1.06       5.20      23.47
H       5.84       0.90      15.31
H       7.52      12.63       9.97
H       8.94      11.96      10.78
H       8.83       0.78      10.46
N       0.96      11.96      19.36
N      12.35       1.11      19.93
N       0.43       0.91       6.05
N      12.26      11.72       7.28
N       0.29       7.76      25.07
N       0.69       6.42       1.51
N       6.27       0.17      12.12
N       7.65       0.61      14.38
