284

Cr       1.97      14.06      14.79
Cr       1.87       4.67       4.44
Cr       7.48      14.03       5.18
Cr       7.44       4.70      14.05
Cr       0.26      14.02      11.78
Cr       0.17       4.71       7.45
Cr       5.77      13.99       2.17
Cr       5.75       4.74      17.06
Cr       3.72      14.00      11.81
Cr       3.63       4.73       7.42
Cr       9.23      13.97       2.20
Cr       9.21       4.76      17.03
H       2.87       1.01       9.84
H       2.82      17.68       9.13
H       8.38       0.98       0.23
H       8.40      17.71      18.74
H       4.72      17.17      16.55
H       2.16       0.80       3.89
H      10.23      17.14       6.94
H       7.74       0.83      13.50
H       4.88       0.90      16.83
H       2.81      17.09       3.63
H      10.39       0.87       7.21
H       8.38      17.12      13.24
H      10.85       1.51       1.85
H       1.78      17.98      14.79
H       5.34       1.54      11.47
H       7.29      17.96       5.17
H       3.61       1.56      12.21
H       7.06      17.69       7.01
H       9.13       1.53       2.60
H       1.55      17.72      16.62
H       3.58      17.84      11.85
H       6.39       1.35       7.29
H       9.09      17.81       2.23
H       0.88       1.38      16.91
H      10.25       7.97      18.94
H      10.34      10.10       1.82
H       3.62       8.34       7.27
H       4.72      10.97       8.42
H       5.12       7.72      12.25
H       7.03      10.17       5.70
H       1.27       8.41       3.74
H       0.80      10.50      15.67
H       4.90       8.62      16.63
H       5.39       9.89       2.04
H       0.27       8.89       7.95
H       8.07      11.01      12.44
H       3.19       7.97      17.09
H       3.70      10.55       1.77
H       9.55       8.45       8.27
H       6.93      11.43      13.87
H       2.43      10.25      16.93
H       2.80       8.30       2.15
H       8.93      10.73       7.91
H       6.49       9.13      14.26
H       4.11      10.78      16.43
H       4.56       7.69       2.26
H      10.74      11.18       7.72
H       7.52       8.65      12.74
H       6.26       9.17       8.37
H       2.16      10.29       6.67
H       9.92       7.49       2.80
H      10.10      10.35      17.90
H       5.06      11.36      11.41
H       6.77       6.37       5.66
H       1.32      12.15       3.51
H       1.01       7.05      15.60
C      10.75      15.97      13.99
C      10.69       2.71       5.30
C       5.18      15.94       4.38
C       5.19       2.74      14.91
C       2.11      15.92      10.19
C       2.02       2.83       9.06
C       7.62      15.89       0.57
C       7.60       2.86      18.68
C       4.20      15.95      14.19
C       3.52       2.64       5.31
C       9.71      15.92       4.57
C       9.09       2.67      14.92
C      10.68      12.19      14.05
C       0.09       6.74       5.58
C       5.61      11.95       4.10
C       5.07       6.56      14.79
C       2.06      12.04      10.26
C       2.05       6.63       9.06
C       7.61      12.02       0.62
C       7.58       6.68      18.67
C       3.57      11.97      13.92
C       4.10       6.58       5.00
C       9.72      12.13       4.64
C       9.13       6.80      14.89
C       1.94      17.26       9.59
C       1.93       1.52       9.71
C       7.52      17.29      19.20
C       7.44       1.49       0.09
C       0.76       0.86       9.81
C       0.85      18.04       9.87
C       6.27       0.83       0.20
C       6.36      18.01       0.26
C       4.96       1.33      14.71
C       4.56      17.15       4.91
C      10.47       1.30       5.09
C      10.13      17.18      14.52
C       5.18       0.74      13.47
C       5.22      17.93       5.87
C      10.69       0.71       3.85
C      10.80      17.96      15.49
C       5.22      18.04      13.31
C       4.76       0.59       6.05
C      10.73      18.01       3.69
C      10.33       0.62      15.67
C       4.90      17.78      15.68
C       2.95       0.37       4.48
C      10.41      17.75       6.06
C       8.53       0.40      14.10
C       4.88       0.49      15.83
C       3.39      17.68       4.32
C      10.39       0.46       6.22
C       8.97      17.71      13.94
C       4.60       1.04      12.13
C       6.69      18.17       6.08
C      10.11       1.01       2.52
C       1.17      18.20      15.69
C       4.63      18.20      11.94
C       6.19       0.97       6.27
C      10.14      18.17       2.32
C       0.68       1.00      15.88
C       4.87      17.22      14.39
C       3.76       1.19       5.28
C      10.38      17.19       4.78
C       9.33       1.22      14.90
C       2.08       7.91       9.69
C       1.88      10.67       9.88
C       7.29       7.85       0.15
C       7.55      10.62       0.29
C       3.15       8.74       9.37
C       3.01      10.08       9.40
C       8.36       8.43       0.81
C       8.45       9.79       0.93
C       0.85       9.83      10.43
C       0.98       8.42      10.37
C       6.45      10.14      18.98
C       6.23       8.74      19.08
C       4.04       8.85       8.16
C       3.83      10.36       8.19
C       9.84       8.26       0.70
C       9.94       9.76       0.86
C       4.28       7.70      14.21
C       5.28      10.60       4.49
C      10.98       8.17       5.37
C      10.10      10.99      14.64
C       3.48       8.42      15.07
C       4.24      10.03       3.80
C      10.13       8.85       6.22
C       8.81      10.53      14.43
C       3.12       9.74      14.87
C       3.88       8.72       3.99
C       9.82      10.17       6.03
C       8.52       9.19      14.56
C       4.36       9.70      12.79
C       5.84       8.38       5.36
C       0.32      10.30       4.22
C      10.68       8.75      15.44
C       4.54       8.29      12.97
C       6.12       9.77       5.26
C       0.57       8.91       4.38
C      10.95      10.12      15.33
C       3.80       8.64      16.47
C       4.33       9.86       2.34
C      10.29       9.03       7.68
C       7.72      10.76      13.46
C       3.32      10.04      16.31
C       3.82       8.47       2.54
C       9.92      10.47       7.48
C       7.38       9.28      13.64
C       3.68      10.47      13.83
C       4.65       7.90       4.78
C      10.41      10.90       5.01
C       9.48       8.23      14.87
C       5.45       8.45       8.50
C       3.00      10.87       7.05
C      10.40       7.46       1.83
C      10.56      10.51      18.87
C       5.11      10.32      11.66
C       6.81       7.42       5.92
C       1.11      11.11       3.29
C       0.58       7.90      16.11
N      10.62       1.62       9.98
N      10.69      17.44      10.26
N       5.04       1.59       0.37
N       5.11      17.41       0.64
N       5.51      17.71      10.88
N       6.72       1.83       5.21
N      11.03      17.68       1.27
N       1.22       1.86      14.82
N      10.76      10.37      11.04
N      11.06       7.52      10.89
N       5.60      11.02      18.25
N       4.87       8.22      19.04
O       3.39      15.55      15.08
O       3.26       3.18       4.15
O       8.90      15.52       5.47
O       8.83       3.21      13.76
O       0.62      15.45      14.67
O       0.50       3.28       4.57
O       6.13      15.42       5.05
O       6.07       3.31      14.18
O      10.41      15.54      12.83
O      10.29       3.19       6.40
O       4.83      15.50       3.22
O       4.78       3.22      16.01
O       1.05      15.38      10.65
O       0.96       3.35       8.58
O       6.56      15.35       1.04
O       6.53       3.38      18.19
O       3.29      15.47      10.45
O       3.19       3.26       8.78
O       8.80      15.44       0.83
O       8.77       3.29      18.40
O       4.32      15.40      13.05
O       4.20       3.33       6.19
O       9.83      15.37       3.43
O       9.78       3.36      15.80
O       3.35      12.57      15.10
O       3.27       6.16       4.13
O       8.86      12.54       5.48
O       8.84       6.19      13.75
O       0.59      12.68      14.68
O       0.51       6.05       4.55
O       6.10      12.65       5.06
O       6.08       6.08      14.17
O      10.37      12.55      12.85
O      10.30       6.18       6.38
O       4.80      12.52       3.23
O       4.79       6.21      16.00
O       1.02      12.61      10.67
O       0.97       6.12       8.56
O       6.53      12.58       1.05
O       6.54       6.15      18.18
O       3.26      12.48      10.46
O       3.20       6.25       8.77
O       8.77      12.45       0.85
O       8.78       6.28      18.39
O       4.29      12.63      13.06
O       4.21       6.10       6.17
O       9.80      12.60       3.44
O       9.79       6.13      15.79
O       1.98      14.02      12.80
O       1.89       4.70       6.44
O       7.49      13.99       3.18
O       7.47       4.74      16.05
O       9.50       1.22       9.44
O      10.59       2.63      10.80
O      10.04      17.91      11.28
O      10.10      16.59       9.47
O       3.99       1.25      19.05
O       5.01       2.60       1.18
O       4.46      17.88       1.67
O       4.59      16.62      19.09
O       5.71       7.34       8.92
O       3.24      11.96       6.55
O       0.29       6.74       1.66
O       0.43      11.27      18.96
O       5.89       9.66      11.00
O       7.66       7.78       6.71
O       1.49      10.64       2.23
O       0.87       8.13      17.27
O       5.36      18.13       9.66
O       6.40      16.79      11.13
O       7.32       2.94       5.52
O       6.59       1.52       3.95
O      10.87      18.10       0.05
O       0.82      16.76       1.51
O       1.81       2.97      15.14
O       1.08       1.54      13.57
O       9.97      11.15      10.37
O      10.31       9.81      12.12
O       0.35       6.47      11.55
O       9.80       7.69      10.62
O       6.13      11.68      17.25
O       4.55      11.53      18.82
O       4.53       6.91       0.07
O       3.87       9.04      19.06
