92

C       0.27       2.13       7.67
C       3.50       3.74       3.18
C       3.72      -0.09       9.93
C       0.04       5.95       0.92
C       5.59       7.00       3.18
C      -1.82      -1.13       7.67
C       2.14       9.21       0.92
C       1.63      -3.35       9.93
C       2.14      -4.62      10.49
C       1.63      10.49       0.37
C       2.60       3.37       4.30
C       1.17       2.50       6.56
C      -1.33       5.89       0.37
C       5.09      -0.02      10.49
C      -1.79      -2.10       6.56
C       5.56       7.97       4.30
C       0.43      10.93       0.87
C       3.34      -5.06       9.98
C       0.59       2.54       5.31
C       3.18       3.33       5.55
C       5.99      -0.94       9.98
C      -2.23       6.80       0.87
C       5.83       7.46       5.55
C      -2.06      -1.59       5.31
C       5.22       0.40       0.52
C      -1.45       5.46      10.34
C       1.27       2.94       4.17
C       2.49       2.93       6.68
C      -5.57      -0.96      10.34
C       9.34       6.82       0.52
C      -1.63      -3.49       6.68
C       5.40       9.35       4.17
C       3.83       0.62       1.06
C      -0.07       5.24       9.80
C       0.51       2.75       2.89
C       3.26       3.11       7.96
C      -4.80      -2.12       9.80
C       8.57       7.99       1.06
C      -1.48      -4.26       7.96
C       5.24      10.12       2.89
Cd      -1.86       1.19       9.29
Cd       5.62       4.67       1.57
Cd       1.32      -0.85       8.65
Cd       2.45       6.71       2.20
F       3.88       0.60       2.44
F      -2.33      11.31       0.63
F       3.25       1.79       0.65
F       0.52       4.07      10.20
F       6.10      -5.45      10.22
F      -0.12       5.26       8.41
F      -0.64       3.51       2.94
F       0.16       1.43       2.78
F       1.22       3.10       1.77
F       2.55       2.77       9.09
F       3.60       4.44       8.07
F       4.41       2.35       7.91
F       8.06      -2.08       8.41
F       7.49      -3.28      10.22
F      -3.49      -2.17      10.20
F       7.26       8.03       0.65
F      -3.72       9.14       0.63
F      -4.30       7.95       2.44
F      -5.67       6.74       7.91
F       5.00       6.61       8.07
F      -1.46      -3.47       9.09
F       5.23       9.34       1.77
F      -1.23      -0.74       2.78
F       9.44      -0.88       2.94
H      -0.11      10.28       1.56
H       3.88      -4.42       9.30
H      -0.43       2.20       5.20
H       4.20       3.66       5.65
H       5.63      -1.69       9.30
H      -1.86       7.56       1.56
H       5.95       6.39       5.65
H      -2.18      -0.52       5.20
O       0.61       1.32       8.66
O       3.15       4.54       2.20
O       2.63       0.03      10.65
O       1.14       5.83       0.20
O       4.72       6.97       2.20
O      -0.95      -1.11       8.66
O       2.70       8.27       0.20
O       1.06      -2.41      10.65
O      -0.95       2.60       7.71
O       4.72       3.26       3.14
O       3.55      -0.29       8.65
O       0.22       6.15       2.20
O       6.53       6.08       3.14
O      -2.76      -0.22       7.71
O       2.03       8.97       2.20
O       1.74      -3.11       8.65
