13

C       3.01       0.21       7.74
C      -1.02      -4.29       7.74
Nd       0.99      -2.04       7.14
C      -1.53       0.21       6.03
C       0.33      -1.63      10.32
C       1.65      -2.45      10.32
O       2.93      -3.27       6.43
O      -0.95      -0.81       6.43
C       3.51      -4.29       6.03
O       1.79       0.21       7.97
O      -0.19      -1.42       9.23
O       0.19      -4.29       7.97
O       2.17      -2.65       9.23
