13

C       3.01       0.21       7.74
Nd       5.53      -2.04       6.62
C       8.05      -4.29       7.74
C       6.18      -2.45       3.44
C       4.87      -1.63       3.44
O       4.73      -4.29       5.80
O       6.71      -2.65       4.54
O       6.33       0.21       5.80
O       4.35      -1.42       4.54
C       3.51      -4.29       6.03
C       7.54       0.21       6.03
O       3.59      -0.81       7.33
O       7.47      -3.27       7.33
