150

C       0.13      -7.21      14.00
C       0.41      -7.13      15.39
C       0.30      -5.92      16.10
C       0.09      -4.69      15.40
C       9.94      -4.74      13.99
C       9.86      -5.99      13.34
C       0.14      23.04      13.31
C       9.87      21.82      13.97
C       9.94      20.58      13.32
C       0.09      20.53      11.90
C       0.30      21.75      11.21
C       0.42      22.96      11.92
C       0.14       0.03      26.59
C       0.41       1.19      25.82
C       0.30       1.20      24.41
C       0.09      -0.02      23.70
C       9.94      -1.22      24.45
C       9.87      -1.16      25.86
C       0.13      15.81       0.73
C       9.86      16.99       1.46
C       9.94      17.05       2.86
C       0.09      15.85       3.61
C       0.30      14.63       2.90
C       0.41      14.65       1.50
C       0.14       7.30      14.03
C       0.42       6.06      13.40
C       0.30       4.83      14.09
C       0.09       4.83      15.50
C       9.94       6.07      16.17
C       9.87       7.26      15.42
C       0.14       8.53      13.29
C       9.87       8.56      11.90
C       9.94       9.75      11.15
C       0.09      11.00      11.81
C       0.30      11.00      13.22
C       0.41       9.77      13.91
C       9.64      21.03       7.70
C       8.60      20.64       6.82
C       8.93      20.02       5.60
C       0.27      19.72       5.32
C       9.38      21.40       9.02
C       0.67      18.79       4.36
C       9.63      11.95       5.28
C       8.60      11.39       6.07
C       8.93      10.64       7.21
C       0.26      10.55       7.60
C       9.37      12.92       4.30
C       0.67      10.18       8.89
C       9.63      14.40      14.35
C       8.60      15.36      14.44
C       8.93      16.72      14.52
C       0.27      17.10      14.40
C       9.37      13.06      14.01
C       0.67      18.41      14.07
C       9.63      -5.19      19.62
C       8.60      -4.79      20.49
C       8.93      -4.18      21.72
C       0.27      -3.89      21.99
C       9.37      -5.56      18.29
C       0.67      -2.96      22.95
C       9.63       3.88      22.04
C       8.60       4.44      21.25
C       8.93       5.19      20.11
C       0.26       5.28      19.72
C       9.38       2.92      23.02
C       0.67       5.65      18.43
C       9.63       1.43      12.96
C       8.60       0.47      12.87
C       8.93      -0.89      12.79
C       0.26      -1.27      12.90
C       9.37       2.77      13.31
C       0.67      -2.58      13.23
H       0.64      -7.97      15.93
H       0.64      23.80      11.39
H       9.78      18.52      11.65
H       0.26      19.28      10.28
H       9.78      -2.69      15.65
H       0.26      -3.44      17.02
H       9.64      -5.98      12.34
H       9.64      21.81      14.97
H       0.64       2.07      26.28
H       0.64      13.76       1.04
H       9.78      16.64       5.48
H       0.26      15.07       5.50
H       9.78      -0.80      21.84
H       0.26       0.76      21.81
H       9.64      -2.02      26.35
H       9.64      17.86       0.96
H       0.64       6.02      12.41
H       0.64       9.81      14.91
H       9.78      12.22      10.20
H       0.26      13.03      11.54
H       9.78       3.60      17.11
H       0.26       2.80      15.77
H       9.64       8.12      15.92
H       9.64       7.70      11.40
H       8.18      19.65       5.01
H       7.62      20.74       7.08
H       8.45      21.21       9.41
H       1.59      18.35       4.48
H       8.18      10.32       7.83
H       7.62      11.58       5.86
H       8.44      13.35       4.28
H       1.59      10.50       9.21
H       8.18      17.42      14.49
H       7.62      15.08      14.40
H       8.45      12.82      13.65
H       1.59      18.52      13.64
H       8.18      -3.80      22.30
H       7.62      -4.89      20.23
H       8.44      -5.36      17.90
H       1.59      -2.52      22.83
H       8.18       5.51      19.49
H       7.62       4.26      21.47
H       8.45       2.49      23.05
H       1.59       5.33      18.11
H       8.18      -1.58      12.82
H       7.62       0.75      12.92
H       8.45       3.00      13.67
H       1.59      -2.69      13.67
N       0.04      -3.51      16.08
N       0.04      19.34      11.23
N       0.33      21.84       9.85
N       9.86      19.47      14.11
N       9.86      -3.64      13.20
N       0.32      -6.01      17.46
N       0.05      -0.02      22.34
N       0.04      15.86       4.97
N       0.32      13.41       3.50
N       9.86      18.28       3.42
N       9.86      -2.45      23.89
N       0.33       2.42      23.82
N       0.04       3.65      16.19
N       0.04      12.18      11.12
N       0.33      12.12      13.98
N       9.86       9.62       9.80
N       9.86       6.21      17.52
N       0.32       3.71      13.34
N       1.20      20.17       6.21
N       0.90      20.80       7.31
N       1.20      11.09       6.77
N       0.90      11.73       5.67
N       1.20      16.12      14.34
N       0.90      14.84      14.34
N       1.20      -4.34      21.11
N       0.90      -4.97      20.00
N       1.20       4.73      20.54
N       0.90       4.10      21.64
N       1.20      -0.29      12.96
N       0.90       0.99      12.96
