496

C       2.30       5.14       2.74
C       1.67       5.89       3.76
C       1.65       7.30       3.73
C       2.26       7.97       2.64
C       2.89       7.24       1.60
C       2.93       5.83       1.67
C       2.29       3.72       2.80
C       2.92       3.00       3.85
C       2.88       1.58       3.89
C       2.24       0.88       2.83
C       1.59       1.59       1.78
C       1.62       3.00       1.78
C      10.03      18.58       2.82
C       9.41      17.88       1.76
C       9.40      16.46       1.69
C      10.03      15.74       2.74
C      10.66      16.42       3.82
C      10.68      17.83       3.84
C      10.02      20.00       2.84
C      10.60      20.75       1.79
C      10.59      22.17       1.82
C      10.04      22.83       2.95
C       9.46      22.10       4.02
C       9.46      20.69       3.94
C      10.11       3.93      17.62
C      10.70       3.22      18.69
C      10.69       1.81      18.75
C      10.06       1.10      17.68
C       9.45       1.79      16.60
C       9.47       3.21      16.58
C      10.14       5.36      17.61
C       9.51       6.11      18.63
C       9.53       7.53      18.60
C      10.16       8.19      17.51
C      10.78       7.45      16.46
C      10.76       6.04      16.53
C       1.86      20.15      17.65
C       2.49      20.90      16.63
C       2.48      22.31      16.64
C       1.85      22.99      17.71
C       1.22      22.26      18.76
C       1.22      20.85      18.72
C       1.88      18.73      17.60
C       1.27      18.02      16.54
C       1.30      16.60      16.50
C       1.91      15.89      17.57
C       2.53      16.59      18.64
C       2.51      18.00      18.64
C       6.16      26.74      11.06
C       6.81      27.76      11.79
C       6.77      27.79      13.20
C       6.08      26.77      13.89
C       5.41      25.74      13.18
C       5.44      25.74      11.77
C       6.20      26.75       9.65
C       5.54      27.76       8.90
C       5.59      27.76       7.49
C       6.29      26.72       6.82
C       6.93      25.70       7.56
C       6.89      25.73       8.97
C      13.94      26.84      24.45
C      14.59      25.83      23.73
C      14.60      25.83      22.32
C      13.95      26.88      21.62
C      13.27      27.90      22.33
C      13.26      27.88      23.75
C      13.94      26.81      25.87
C      13.24      25.79      26.57
C      13.26      25.77      27.99
C      13.97      26.78      28.70
C      14.64      27.80      27.99
C      14.64      27.80      26.58
C      14.19      11.87       9.34
C      13.51      12.86       8.62
C      13.48      12.85       7.21
C      14.12      11.79       6.51
C      14.82      10.78       7.22
C      14.86      10.83       8.64
C      14.19      11.91      10.76
C      14.84      12.95      11.47
C      14.79      12.99      12.89
C      14.12      11.96      13.59
C      13.48      10.91      12.88
C      13.51      10.90      11.48
C       6.01      11.98      25.62
C       5.41      10.93      26.34
C       5.47      10.88      27.75
C       6.12      11.92      28.45
C       6.75      12.98      27.74
C       6.70      13.00      26.33
C       5.97      11.98      24.20
C       6.68      11.00      23.47
C       6.67      11.03      22.05
C       5.97      12.06      21.37
C       5.29      13.06      22.11
C       5.28      13.00      23.52
C      15.36      28.81      28.70
C      14.69       0.13      29.48
C      15.42       0.99       0.70
C       0.86       0.89       0.78
C       1.52      29.60      29.60
C       0.79      28.75      28.75
C      13.36       2.00       1.43
C      12.63       1.15       0.56
C      12.74       3.02       2.30
C      11.16       1.13       0.39
C       7.58      24.63       6.89
C       6.84      23.59       6.29
C       7.48      22.67       5.42
C       8.86      22.79       5.12
C       9.60      23.77       5.82
C       8.98      24.69       6.68
C       5.37      21.54       5.11
C       4.73      22.50       5.94
C       4.68      20.38       4.51
C       3.29      22.52       6.30
C      12.79       9.89      13.59
C      13.49       8.83      14.21
C      12.81       7.94      15.09
C      11.43       8.13      15.38
C      10.74       9.13      14.67
C      11.40      10.01      13.79
C      14.87       6.73      15.42
C      15.55       7.64      14.57
C      15.50       5.54      16.02
C       1.01       7.59      14.22
C       4.61      14.10      21.43
C       5.31      15.09      20.70
C       4.62      15.97      19.82
C       3.22      15.88      19.67
C       2.52      14.93      20.46
C       3.20      14.05      21.32
C       6.72      16.98      19.20
C       7.41      16.10      20.08
C       7.38      18.02      18.38
C       8.87      16.08      20.31
C       8.87       8.29      19.60
C       9.55       9.24      20.40
C       8.83      10.13      21.24
C       7.42      10.07      21.30
C       6.74       9.11      20.53
C       7.45       8.23      19.68
C      10.89      11.19      21.89
C      11.62      10.29      21.06
C      11.51      12.27      22.69
C      13.08      10.28      20.87
C       3.16      23.04      15.62
C       2.50      24.00      14.81
C       3.24      24.87      13.96
C       4.65      24.78      13.90
C       5.30      23.79      14.67
C       4.57      22.94      15.52
C       1.20      25.97      13.31
C       0.46      25.09      14.14
C       0.60      27.05      12.49
C      14.96      25.11      14.33
C      11.33      15.66       4.82
C      10.64      14.78       5.68
C      11.34      13.88       6.52
C      12.76      13.85       6.50
C      13.45      14.75       5.66
C      12.75      15.64       4.83
C       9.26      12.96       7.29
C       8.55      13.88       6.47
C       8.61      11.96       8.16
C       7.08      13.97       6.35
C       7.41      28.84      13.90
C       6.68       0.12      14.69
C       7.35       1.04      15.53
C       8.77       1.05      15.60
C       9.49       0.16      14.76
C       8.82      28.90      13.93
C       5.23       1.88      16.29
C       4.56       0.98      15.43
C       4.54       2.85      17.18
C       3.09       0.85      15.28
C      15.23      24.78      21.60
C      14.48      23.85      20.84
C      15.13      22.97      19.94
C       0.57      22.98      19.81
C       1.31      23.86      20.63
C       0.67      24.75      21.51
C      12.98      22.11      19.25
C      12.34      22.97      20.18
C      12.27      21.17      18.37
C      10.88      23.05      20.43
C       4.86       9.80      28.46
C       5.62       8.95      29.30
C       4.97       8.03       0.53
C       3.55       7.95       0.56
C       2.81       8.77      29.32
C       3.45       9.68      28.46
C       7.10       7.34       1.39
C       7.75       8.24       0.51
C       7.80       6.45       2.35
C       9.22       8.44       0.40
C       1.00       8.04       4.76
C       1.69       9.00       5.54
C       0.99       9.88       6.40
C      15.55       9.80       6.51
C      14.87       8.81       5.77
C      15.57       7.94       4.91
C       3.04      10.99       6.96
C       3.76      10.10       6.12
C       3.67      12.09       7.72
C       5.22      10.16       5.91
C      11.20      22.94       0.78
C      10.47      23.91       0.05
C      11.15      24.83      28.85
C      12.55      24.77      28.71
C      13.27      23.78      29.41
C      12.60      22.88       0.62
C       9.06      25.92      28.36
C       8.38      24.99      29.19
C       8.40      27.02      27.63
C       6.93      24.97      29.47
C       7.43      14.00      28.46
C       6.72      15.05      29.09
C       7.38      15.94       0.33
C       8.76      15.77       0.62
C       9.47      14.77      29.55
C       8.81      13.89      28.68
C       5.30      17.11       0.66
C       4.64      16.20      29.45
C       4.65      18.28       1.28
C       3.20      16.23      29.09
C      12.61      28.93      21.62
C      13.33       0.35      21.03
C      12.68       1.26      20.15
C      11.31       1.10      19.82
C      10.59       0.09      20.51
C      11.23      28.83      21.38
C      14.76       2.45      19.89
C      15.41       1.51      20.73
C      15.42       3.64      19.31
C       0.87       1.54      21.11
C       3.51       0.85       4.94
C       2.79      29.58       5.75
C       3.47      28.70       6.63
C       4.88      28.73       6.72
C       5.59       0.02       5.94
C       4.92       0.88       5.06
C       1.37      27.69       7.24
C       0.69      28.58       6.38
C       0.71      26.65       8.06
C      15.20      28.61       6.15
C      15.40      14.05      13.61
C      14.62      14.97      14.36
C      15.24      15.86      15.28
C       0.67      15.86      15.45
C       1.45      14.98      14.65
C       0.84      14.08      13.76
C      13.06      16.68      15.91
C      12.46      15.82      14.96
C      12.32      17.60      16.80
C      11.01      15.72      14.68
H       1.22       5.40       4.54
H       1.15       3.51       1.03
H       4.37       4.77       1.03
H       4.40       4.00       4.51
H       3.07       9.70       2.73
H       3.09      28.85       2.55
H       8.95      18.41       1.01
H       9.04      20.15       4.71
H      12.17      18.79       4.52
H      12.03      19.77       1.00
H      10.87      14.04       2.52
H      10.93      24.51       3.17
H      11.14       3.74      19.45
H      11.20       5.50      15.78
H       8.06       4.28      15.88
H       8.04       5.14      19.33
H       9.20      29.06      17.88
H       9.31       9.88      17.27
H       2.96      20.41      15.87
H       2.96      18.51      19.41
H      15.79      19.73      19.37
H      15.84      19.10      15.85
H       0.99      24.69      17.58
H       1.07      14.21      17.81
H       7.32      28.49      11.28
H       7.36      24.99       9.50
H       3.96      25.14      10.73
H       4.03      28.38       9.87
H       6.86      26.41      15.58
H       7.13      27.03       5.15
H      15.07      25.07      24.23
H      15.14      28.54      26.08
H      11.72      28.51      24.66
H      11.72      25.22      25.60
H      14.79      27.29      19.98
H      14.81      26.38       0.70
H      13.02      13.61       9.12
H      13.04      10.15      10.97
H       0.39      10.25       9.64
H       0.39      13.59      10.55
H      13.26      11.38       4.88
H      13.24      12.26      15.25
H       4.93      10.18      25.83
H       4.79      13.73      24.05
H       8.20      13.68      25.39
H       8.19      10.40      24.45
H       5.31      12.29       0.48
H       5.16      11.72      19.69
H       1.30      28.03      28.21
H       2.54      29.49       0.00
H      13.50       3.56       2.88
H      12.05       2.55       3.00
H      12.20       3.75       1.69
H      10.65       1.87       1.01
H      10.77       0.15       0.64
H      10.92       1.35      28.99
H       9.53      25.44       7.09
H      10.60      23.89       5.64
H       5.39      19.74       3.99
H       3.93      20.72       3.79
H       4.20      19.79       5.29
H       2.73      21.73       5.81
H       2.86      23.48       6.00
H       3.18      22.41       7.38
H      10.88      10.78      13.36
H       9.74       9.29      14.83
H      14.75       4.93      16.54
H       0.29       5.85      16.74
H      15.95       4.92      15.25
H       1.54       6.78      14.71
H       1.49       8.53      14.50
H       1.11       7.46      13.14
H       2.67      13.33      21.81
H       1.51      14.83      20.36
H       6.66      18.57      17.78
H       8.10      17.55      17.70
H       7.91      18.73      19.03
H       9.41      16.82      19.73
H       9.26      15.09      20.05
H       9.07      16.26      21.37
H       6.93       7.60      19.09
H       5.72       9.06      20.53
H      10.76      12.84      23.24
H      12.21      11.84      23.41
H      12.05      12.96      22.04
H      13.59      11.04      21.46
H      13.48       9.30      21.17
H      13.31      10.44      19.82
H       5.08      22.29      16.12
H       6.32      23.72      14.66
H       1.37      27.59      11.94
H      15.87      26.62      11.78
H       0.08      27.76      13.14
H      14.47      25.88      13.75
H      14.54      24.15      14.04
H      14.74      25.29      15.39
H      13.28      16.23       4.19
H      14.47      14.73       5.61
H       9.36      11.37       8.71
H       7.98      12.45       8.90
H       8.01      11.28       7.56
H       6.56      13.27       6.99
H       6.76      14.98       6.62
H       6.79      13.77       5.32
H       9.38      28.22      13.39
H      10.51       0.13      14.81
H       5.26       3.44      17.75
H       3.90       2.32      17.88
H       3.94       3.53      16.58
H       2.54       1.54      15.91
H       2.78      29.48      15.53
H       2.82       1.04      14.24
H       1.24      25.43      22.03
H       2.33      23.91      20.54
H      12.97      20.64      17.71
H      11.57      21.72      17.73
H      11.73      20.44      18.96
H      10.31      22.36      19.82
H      10.53      24.06      20.21
H      10.68      22.83      21.48
H       2.88      10.31      27.89
H       1.79       8.76      29.35
H       7.10       5.85       2.92
H       8.39       7.05       3.05
H       8.47       5.78       1.80
H       9.78       7.80       1.08
H       9.46       9.48       0.62
H       9.54       8.22      29.02
H      15.03       7.28       4.33
H      13.85       8.75       5.80
H       2.94      12.62       8.33
H       4.44      11.69       8.39
H       4.12      12.80       7.03
H       5.49      11.13       5.50
H       5.73      10.01       6.86
H       5.55       9.39       5.22
H      13.16      22.23       1.18
H      14.29      23.74      29.36
H       9.12      27.61      27.06
H       7.66      26.62      26.94
H       7.90      27.69      28.34
H       6.39      25.76      28.94
H       6.51      24.01      29.16
H       6.76      25.10       0.89
H       9.35      13.13      28.25
H      10.47      14.63       0.07
H       5.38      18.89       1.81
H       3.89      17.95       1.99
H       4.19      18.91       0.52
H       2.66      17.03      29.59
H       2.74      15.28      29.37
H       3.10      16.36      28.01
H      10.68      28.07      21.79
H       9.59      29.60      20.33
H      14.70       4.27      18.79
H       0.23       3.33      18.61
H      15.87       4.24      20.11
H       1.42       2.35      20.64
H       1.34       0.59      20.82
H       0.96       1.65      22.20
H       5.47       1.49       4.45
H       6.61       0.04       5.97
H       1.44      26.08       8.65
H       0.00      27.11       8.75
H       0.18      25.95       7.42
H      14.66      27.87       6.73
H      14.81      29.60       6.41
H      14.99      28.43       5.09
H       1.42      13.41      13.26
H       2.46      14.94      14.77
H      12.99      18.13      17.47
H      11.61      17.03      17.40
H      11.78      18.33      16.20
H      10.41      16.40      15.28
H      10.67      14.70      14.88
H      10.82      15.95      13.63
N      14.71       1.87       1.45
N      13.33       0.25      29.46
N       6.70      21.69       4.87
N       5.50      23.47       6.49
N      13.54       6.94      15.65
N      14.82       8.64      14.01
N       5.37      16.86      19.12
N       6.67      15.20      20.78
N       9.54      11.07      21.93
N      10.90       9.37      20.36
N       2.55      25.81      13.27
N       1.15      24.16      14.85
N      10.61      13.01       7.27
N       9.28      14.73       5.70
N       6.59       1.86      16.30
N       5.32       0.14      14.68
N      14.34      22.16      19.18
N      13.12      23.81      20.92
N       5.75       7.29       1.36
N       6.97       9.00      29.34
N       1.70      10.83       7.05
N       3.04       9.15       5.45
N      10.40      25.79      28.23
N       9.13      24.04       0.17
N       6.63      16.92       0.89
N       5.38      15.21      28.88
N      13.44       2.26      19.62
N      14.66       0.52      21.26
N       2.72      27.79       7.32
N       1.43      29.47       5.67
N      14.42      16.65      16.02
N      13.27      15.00      14.24
O       2.17       9.34       2.57
O       2.20      29.16       2.83
O       3.53       5.13       0.66
O       3.54       3.68       4.87
O       9.97      14.37       2.75
O      10.01      24.20       2.98
O      11.31      18.48       4.87
O      11.15      20.12       0.71
O      10.11      29.38      17.67
O      10.22       9.55      17.49
O       8.88       3.86      15.53
O       8.90       5.48      19.67
O       1.90      24.36      17.75
O       1.97      14.53      17.55
O       0.63      20.15      19.74
O       0.69      18.69      15.50
O       6.01      26.80      15.26
O       6.27      26.66       5.45
O       4.79      24.75      11.08
O       4.87      28.77       9.54
O      13.94      26.89      20.26
O      13.96      26.78       0.42
O      12.61      28.86      24.43
O      12.56      24.82      25.89
O      14.12      11.77       5.14
O      14.13      11.95      14.96
O      15.52       9.85       9.32
O      15.48      13.95      10.79
O       6.17      11.91       0.17
O       6.01      12.11      20.01
O       7.31      14.02      25.65
O       7.36      10.00      24.11
