256

C       0.03       0.63       7.58
C       0.04       0.29       6.19
C       0.09       1.26       5.14
C       0.12       2.62       5.49
C       0.11       3.02       6.84
C       0.07       2.03       7.85
C       0.00      15.37       8.65
C       0.05      13.97       8.40
C       0.01      12.99       9.42
C      15.66      13.40      10.76
C      15.61      14.76      11.09
C      15.64      15.72      10.05
C      15.49       0.19      39.03
C       0.10       0.19      37.63
C      14.86       0.23      36.59
C      13.49       0.25      36.94
C      13.10       0.24      38.29
C      14.09       0.22      39.30
C       0.75       0.16      40.10
C       2.15       0.19      39.84
C       3.14       0.15      40.86
C       2.73       0.10      42.21
C       1.36       0.06      42.54
C       0.41       0.08      41.49
C       0.23       0.63      55.83
C       0.21       0.30      57.22
C       0.16       1.26      58.27
C       0.14       2.63      57.92
C       0.17       3.03      56.57
C       0.21       2.03      55.56
C       0.24      15.37      54.76
C       0.22      13.97      55.02
C       0.21      12.99      54.00
C       0.21      13.39      52.65
C       0.26      14.76      52.32
C       0.27      15.71      53.36
C       0.43       0.17      24.38
C       0.10       0.27      25.77
C       1.06       0.30      26.81
C       2.43       0.26      26.47
C       2.82       0.17      25.12
C       1.83       0.11      24.12
C      15.17       0.15      23.31
C      13.77       0.12      23.57
C      12.79       0.12      22.55
C      13.19       0.15      21.20
C      14.56       0.14      20.87
C      15.52       0.15      21.91
C      15.68       0.22      14.55
C       0.77       1.07      15.35
C       0.83       0.95      16.76
C       0.04      15.68      17.42
C      14.93      14.82      16.64
C      14.89      14.98      15.23
C       1.71       1.89      17.52
C      14.07      13.74      17.20
C      15.63       0.38      13.16
C       0.12      15.55      18.81
C       0.19       0.14      46.00
C      15.07       0.96      46.80
C      15.19       1.02      48.21
C       0.46       0.23      48.87
C       1.31      15.11      48.09
C       1.15      15.08      46.68
C      14.26       1.91      48.97
C       2.39      14.25      48.65
C       0.03       0.09      44.61
C       0.59       0.31      50.26
C       0.37       0.07      61.72
C      14.96       0.62      62.35
C      14.81       0.61       0.89
C       0.12       0.06       1.71
C       1.30      15.26       1.08
C       1.39      15.26      62.54
C      13.56       1.18       1.48
C       2.47      14.71       1.82
C       0.50       0.01      60.32
C      15.65      15.66       3.09
C      15.66       0.14      30.26
C      15.30      14.74      31.04
C      15.45      14.73      32.45
C       0.24       0.17      33.12
C       0.58       1.32      32.35
C       0.43       1.28      30.94
C      15.08      13.49      33.20
C       1.08       2.60      32.92
C      15.48       0.14      28.87
C       0.44       0.13      34.51
C       0.09       6.52       8.16
C       0.01       7.25       9.36
C      15.72       8.67       9.39
C       0.08       9.41       8.16
C       0.17       8.67       6.93
C       0.16       7.25       6.96
C      15.62       9.29      10.75
C       0.27       9.31       5.59
C       0.08       5.11       8.20
C       0.09      10.84       8.11
C       9.60       0.21      39.62
C       8.87       0.12      40.81
C       7.45       0.11      40.84
C       6.71       0.21      39.61
C       7.46       0.29      38.38
C       8.87       0.29      38.41
C       6.83       0.01      42.19
C       6.81       0.40      37.04
C      11.01       0.21      39.66
C       5.29       0.21      39.56
C       0.18       6.52      55.25
C       0.24       7.26      54.05
C       0.24       8.67      54.02
C       0.17       9.41      55.25
C       0.11       8.67      56.48
C       0.11       7.25      56.45
C       0.32       9.29      52.67
C       0.02       9.31      57.83
C       0.19       5.11      55.21
C       0.17      10.84      55.31
C       6.32       0.07      23.80
C       7.06      15.70      22.61
C       8.47      15.71      22.58
C       9.21       0.09      23.81
C       8.47       0.18      25.04
C       7.05       0.17      25.01
C       9.09      15.60      21.23
C       9.11       0.30      26.38
C       4.91       0.06      23.76
C      10.64       0.11      23.86
H      15.71      15.05       5.89
H      15.55       0.96      10.34
H      14.96       3.79       4.28
H       0.81      12.34      12.07
H       0.10       2.37       8.80
H       0.12      13.62       7.45
H       1.07       0.15      37.33
H      15.16       0.01      41.79
H      12.32      15.08      35.75
H       3.79       0.96      43.52
H      13.75       0.25      40.25
H       2.50       0.26      38.89
H       0.21      15.05      57.53
H       0.30       0.96      53.06
H       1.00       3.80      59.14
H      15.00      12.34      51.38
H       0.22       2.38      54.61
H       0.21      13.62      55.97
H      14.85       0.35      26.07
H       0.76       0.20      21.61
H       3.57      15.14      27.72
H      12.11       1.06      19.94
H       2.17       0.01      23.17
H      13.42       0.07      24.52
H       1.34       1.78      14.89
H      14.29      14.37      14.68
H       2.23       2.60      16.88
H       2.46       1.32      18.07
H       1.11       2.46      18.23
H      14.17      13.61      18.28
H      14.34      12.78      16.74
H      13.02      13.95      16.98
H       0.37       1.16      12.76
H       0.94      15.18      19.22
H      14.36       1.53      46.33
H       1.76      14.46      46.13
H      13.56       2.44      48.32
H      14.84       2.66      49.51
H      13.69       1.32      49.68
H       2.52      14.35      49.73
H       3.35      14.51      48.19
H       2.18      13.20      48.44
H      14.96       0.55      44.22
H       0.96       1.14      50.67
H      14.20       1.00      61.77
H       2.23      14.87      62.10
H      12.86       1.55       0.72
H      13.81       2.02       2.13
H      13.04       0.41       2.06
H       2.39      14.80       2.90
H       3.38      15.24       1.52
H       2.59      13.65       1.57
H       0.97      14.97      59.91
H       0.06      14.76       3.49
H      14.94      13.91      30.57
H       0.67       2.11      30.38
H      14.75      12.68      32.54
H      14.26      13.71      33.89
H       0.22      13.12      33.76
H       1.10       2.61      34.01
H       0.42       3.42      32.61
H       2.08       2.80      32.56
H      14.82      15.22      28.50
H       1.32       0.41      34.87
H      15.66       6.73      10.24
H       0.22       6.74       6.08
H      15.55       8.56      11.56
H      14.72       9.91      10.80
H       0.79       9.89      10.94
H       1.16       9.94       5.54
H      15.11       9.93       5.41
H       0.33       8.60       4.76
H       0.02       4.64       9.11
H       0.13      11.31       7.21
H       9.39       0.06      41.69
H       9.39       0.35      37.53
H       7.55      15.65      43.01
H       6.20      14.83      42.24
H       6.23       0.89      42.39
H       6.19       1.29      36.99
H       6.19      15.24      36.85
H       7.53       0.46      36.21
H      11.48       0.15      40.56
H       4.81       0.26      38.66
H       0.29       6.74      53.17
H       0.07       6.73      57.33
H       0.38       8.57      51.85
H       1.21       9.92      52.60
H      15.15       9.89      52.49
H      14.85       9.93      57.89
H       0.91       9.93      58.00
H      15.69       8.59      58.65
H       0.24       4.64      54.30
H       0.15      11.31      56.21
H       6.54      15.63      21.73
H       6.53       0.23      25.89
H       8.37      15.49      20.41
H       9.74      14.72      21.19
H       9.67       0.78      21.02
H       9.73       1.20      26.42
H       9.74      15.15      26.57
H       8.39       0.37      27.20
H       4.44       0.00      22.86
H      11.11       0.15      24.76
N      15.53      15.05      12.40
N       0.03      11.65       9.19
N       0.12       4.36       7.08
N       0.11       0.98       3.83
N       1.08      15.70      43.85
N       4.47       0.17      40.63
N      11.76       0.24      38.54
N      15.12       0.23      35.28
N       0.26      15.04      51.01
N       0.19      11.65      54.23
N       0.16       4.36      56.33
N       0.12       0.99      59.58
N      14.84       0.16      19.56
N      11.45       0.11      22.78
N       4.16       0.14      24.88
N       0.78       0.42      28.12
O       0.17       3.57       4.50
O      15.61      12.46      11.75
O      12.54       0.29      35.96
O       3.67       0.04      43.20
O       0.07       3.58      58.90
O       0.21      12.45      51.66
O       3.38       0.34      27.45
O      12.25       0.12      20.21
