873

H       8.35      19.06      37.63
H       9.97      18.54      39.35
H      11.35      17.62       0.84
H      12.41      16.35       2.61
H       9.69      13.17       1.99
H       6.38      15.39      38.34
H       6.77      15.85       1.99
H       4.05      12.67       2.61
H       5.11      11.41       0.84
H      10.08      13.64      38.34
H       6.49      10.49      39.35
H       8.11       9.97      37.63
H      11.13      13.41       4.05
H      10.43      12.21      36.28
H       5.33      15.61       4.05
H       6.04      16.82      36.27
H      -4.79      12.14      10.67
H      -6.06      11.00      12.39
H      26.26      10.26      14.32
H      24.63       9.97      16.08
H      23.24      13.91      15.47
H      -6.99      15.68      11.38
H      -6.78      15.11      15.47
H      -8.17      19.05      16.08
H      -9.79      18.77      14.32
H      23.44      13.35      11.38
H      22.52      18.03      12.39
H      21.25      16.89      10.67
H      22.73      12.55      17.53
H      22.04      13.77       9.31
H      -6.26      16.47      17.53
H      -5.58      15.26       9.31
H      -4.22      26.98      24.15
H      -4.57      28.64      25.87
H      12.43       1.03      27.80
H      13.00       2.58      29.57
H      17.11       1.81      28.95
H      -0.06      27.11      24.86
H      -0.65      27.21      28.95
H       3.46      26.45      29.57
H       4.03      28.00      27.80
H      16.51       1.92      24.86
H      21.03       0.38      25.87
H      20.67       2.05      24.15
H      16.19       2.94      31.01
H      17.58       2.93      22.80
H       0.27      26.08      31.01
H      -1.12      26.09      22.79
H      14.33       8.84      31.81
H      15.17       7.35      30.14
H      14.53       7.59      35.89
H      13.44       8.96      37.52
H      10.86      10.45      34.53
H      14.56       4.09      32.75
H      11.95       9.10      32.91
H      13.72       5.57      34.41
H      12.07      11.31      37.73
H      11.05       9.90      38.03
H      16.41       4.96      29.86
H      14.73       4.89      29.31
H      17.17      12.07       4.84
H      15.45      12.08       3.18
H      15.99      12.51       8.93
H      17.72      12.77      10.56
H      20.30      14.27       7.57
H      12.94      14.24       5.79
H      18.58      14.00       5.95
H      14.64      14.23       7.45
H      20.44      12.79      10.76
H      19.72      14.38      11.07
H      12.76      12.20       2.90
H      13.54      13.69       2.35
H      18.54       8.00      18.33
H      19.40       9.48      16.66
H      19.53       8.79      22.42
H      18.89       7.17      24.05
H      18.88       4.19      21.05
H      22.55      10.57      19.27
H      19.51       5.81      19.43
H      21.69       9.10      20.93
H      17.54       4.80      24.25
H      19.27       4.63      24.55
H      20.87      11.75      16.38
H      21.76      10.33      15.83
H       2.13      20.19      31.81
H       1.28      21.67      30.14
H       1.93      21.43      35.89
H       3.02      20.06      37.52
H       5.60      18.57      34.53
H       1.90      24.94      32.75
H       4.51      19.93      32.91
H       2.74      23.46      34.41
H       4.39      17.71      37.73
H       5.41      19.13      38.03
H       0.04      24.07      29.86
H       1.72      24.13      29.31
H      -0.70      16.96       4.85
H       1.01      16.95       3.18
H       0.47      16.51       8.94
H      -1.26      16.25      10.56
H      -3.84      14.76       7.57
H       3.52      14.78       5.79
H      -2.12      15.03       5.95
H       1.82      14.79       7.45
H      -3.98      16.23      10.77
H      -3.26      14.65      11.07
H       3.71      16.82       2.90
H       2.92      15.34       2.35
H      -2.08      21.03      18.33
H      -2.95      19.55      16.66
H      -3.06      20.23      22.41
H      -2.42      21.86      24.04
H      -2.43      24.84      21.05
H      -6.08      18.45      19.27
H      -3.05      23.22      19.43
H      -5.22      19.92      20.93
H      -1.08      24.23      24.25
H      -2.81      24.40      24.55
H      -4.40      17.28      16.37
H      -5.30      18.70      15.83
H       8.35      19.06      26.63
H       9.97      18.54      28.35
H      11.35      17.62      30.28
H      12.41      16.35      32.05
H       9.69      13.17      31.43
H       6.38      15.39      27.34
H       6.77      15.85      31.43
H       4.05      12.67      32.05
H       5.11      11.41      30.28
H      10.08      13.64      27.34
H       6.49      10.49      28.35
H       8.11       9.97      26.63
H      11.13      13.41      33.49
H      10.43      12.21      25.28
H       5.33      15.61      33.50
H       6.04      16.82      25.27
H      -4.79      12.14      40.11
H      -6.06      11.00       1.39
H      26.26      10.26       3.32
H      24.63       9.97       5.08
H      23.24      13.91       4.47
H      -6.99      15.68       0.38
H      -6.78      15.11       4.47
H      -8.17      19.05       5.08
H      -9.79      18.77       3.32
H      23.44      13.35       0.38
H      22.52      18.03       1.39
H      21.25      16.89      40.11
H      22.73      12.55       6.53
H      22.04      13.77      38.75
H      -6.26      16.47       6.53
H      -5.58      15.26      38.76
H      -4.22      26.98      13.15
H      -4.57      28.64      14.87
H      12.43       1.03      16.80
H      13.00       2.58      18.57
H      17.11       1.81      17.95
H      -0.06      27.11      13.86
H      -0.65      27.21      17.95
H       3.46      26.45      18.57
H       4.03      28.00      16.80
H      16.51       1.92      13.86
H      21.03       0.38      14.87
H      20.67       2.05      13.15
H      16.19       2.94      20.01
H      17.58       2.93      11.80
H       0.27      26.08      20.01
H      -1.12      26.09      11.79
H      14.33       8.84      20.81
H      15.17       7.35      19.14
H      14.53       7.59      24.89
H      13.44       8.96      26.52
H      10.86      10.45      23.53
H      14.56       4.09      21.75
H      11.95       9.10      21.91
H      13.72       5.57      23.41
H      12.07      11.31      26.73
H      11.05       9.90      27.03
H      16.41       4.96      18.86
H      14.73       4.89      18.31
H      17.17      12.07      34.29
H      15.45      12.08      32.62
H      15.99      12.51      38.37
H      17.72      12.77      40.00
H      20.30      14.27      37.01
H      12.94      14.24      35.23
H      18.58      14.00      35.39
H      14.64      14.23      36.89
H      20.44      12.79      40.20
H      19.72      14.38       0.07
H      12.76      12.20      32.34
H      13.54      13.69      31.79
H      18.54       8.00       7.33
H      19.40       9.48       5.66
H      19.53       8.79      11.42
H      18.89       7.17      13.05
H      18.88       4.19      10.05
H      22.55      10.57       8.27
H      19.51       5.81       8.43
H      21.69       9.10       9.93
H      17.54       4.80      13.25
H      19.27       4.63      13.55
H      20.87      11.75       5.38
H      21.76      10.33       4.83
H       2.13      20.19      20.81
H       1.28      21.67      19.14
H       1.93      21.43      24.89
H       3.02      20.06      26.52
H       5.60      18.57      23.53
H       1.90      24.94      21.75
H       4.51      19.93      21.91
H       2.74      23.46      23.41
H       4.39      17.71      26.73
H       5.41      19.13      27.03
H       0.04      24.07      18.86
H       1.72      24.13      18.31
H      -0.70      16.96      34.29
H       1.01      16.95      32.62
H       0.47      16.51      38.38
H      -1.26      16.25      40.01
H      -3.84      14.76      37.01
H       3.52      14.78      35.23
H      -2.12      15.03      35.39
H       1.82      14.79      36.89
H      -3.98      16.23      40.21
H      -3.26      14.65       0.07
H       3.71      16.82      32.34
H       2.92      15.34      31.79
H      -2.08      21.03       7.33
H      -2.95      19.55       5.66
H      -3.06      20.23      11.41
H      -2.42      21.86      13.04
H      -2.43      24.84      10.05
H      -6.08      18.45       8.27
H      -3.05      23.22       8.43
H      -5.22      19.92       9.93
H      -1.08      24.23      13.25
H      -2.81      24.40      13.55
H      -4.40      17.28       5.37
H      -5.30      18.70       4.83
H       8.35      19.06      15.63
H       9.97      18.54      17.35
H      11.35      17.62      19.28
H      12.41      16.35      21.05
H       9.69      13.17      20.43
H       6.38      15.39      16.34
H       6.77      15.85      20.43
H       4.05      12.67      21.05
H       5.11      11.41      19.28
H      10.08      13.64      16.34
H       6.49      10.49      17.35
H       8.11       9.97      15.63
H      11.13      13.41      22.49
H      10.43      12.21      14.28
H       5.33      15.61      22.50
H       6.04      16.82      14.27
H      -4.79      12.14      29.11
H      -6.06      11.00      30.83
H      26.26      10.26      32.76
H      24.63       9.97      34.53
H      23.24      13.91      33.91
H      -6.99      15.68      29.82
H      -6.78      15.11      33.91
H      -8.17      19.05      34.53
H      -9.79      18.77      32.76
H      23.44      13.35      29.82
H      22.52      18.03      30.83
H      21.25      16.89      29.11
H      22.73      12.55      35.98
H      22.04      13.77      27.75
H      -6.26      16.47      35.97
H      -5.58      15.26      27.76
H      -4.22      26.98       2.15
H      -4.57      28.64       3.87
H      12.43       1.03       5.80
H      13.00       2.58       7.57
H      17.11       1.81       6.95
H      -0.06      27.11       2.86
H      -0.65      27.21       6.95
H       3.46      26.45       7.57
H       4.03      28.00       5.80
H      16.51       1.92       2.86
H      21.03       0.38       3.87
H      20.67       2.05       2.15
H      16.19       2.94       9.01
H      17.58       2.93       0.80
H       0.27      26.08       9.01
H      -1.12      26.09       0.79
H      14.33       8.84       9.81
H      15.17       7.35       8.14
H      14.53       7.59      13.89
H      13.44       8.96      15.52
H      10.86      10.45      12.53
H      14.56       4.09      10.75
H      11.95       9.10      10.91
H      13.72       5.57      12.41
H      12.07      11.31      15.73
H      11.05       9.90      16.03
H      16.41       4.96       7.86
H      14.73       4.89       7.31
H      17.17      12.07      23.29
H      15.45      12.08      21.62
H      15.99      12.51      27.37
H      17.72      12.77      29.00
H      20.30      14.27      26.01
H      12.94      14.24      24.23
H      18.58      14.00      24.39
H      14.64      14.23      25.89
H      20.44      12.79      29.20
H      19.72      14.38      29.51
H      12.76      12.20      21.34
H      13.54      13.69      20.79
H      18.54       8.00      36.77
H      19.40       9.48      35.11
H      19.53       8.79       0.42
H      18.89       7.17       2.05
H      18.88       4.19      39.49
H      22.55      10.57      37.71
H      19.51       5.81      37.87
H      21.69       9.10      39.37
H      17.54       4.80       2.25
H      19.27       4.63       2.55
H      20.87      11.75      34.82
H      21.76      10.33      34.27
H       2.13      20.19       9.81
H       1.28      21.67       8.14
H       1.93      21.43      13.89
H       3.02      20.06      15.52
H       5.60      18.57      12.53
H       1.90      24.94      10.75
H       4.51      19.93      10.91
H       2.74      23.46      12.41
H       4.39      17.71      15.73
H       5.41      19.13      16.03
H       0.04      24.07       7.86
H       1.72      24.13       7.31
H      -0.70      16.96      23.29
H       1.01      16.95      21.62
H       0.47      16.51      27.38
H      -1.26      16.25      29.01
H      -3.84      14.76      26.01
H       3.52      14.78      24.23
H      -2.12      15.03      24.39
H       1.82      14.79      25.89
H      -3.98      16.23      29.21
H      -3.26      14.65      29.51
H       3.71      16.82      21.34
H       2.92      15.34      20.79
H      -2.08      21.03      36.77
H      -2.95      19.55      35.10
H      -3.06      20.23       0.41
H      -2.42      21.86       2.04
H      -2.43      24.84      39.49
H      -6.08      18.45      37.71
H      -3.05      23.22      37.87
H      -5.22      19.92      39.37
H      -1.08      24.23       2.25
H      -2.81      24.40       2.55
H      -4.40      17.28      34.82
H      -5.30      18.70      34.27
C      25.13      14.51      13.39
C       8.37      13.28      39.54
C       7.35      12.37      39.83
C       6.55      12.91       0.39
C       7.03      14.18       0.72
C       6.40      14.93       1.74
C       5.30      14.38       2.44
C       4.84      13.08       2.10
C       5.45      12.35       1.07
C       7.25      11.15      39.14
C       8.19      10.85      38.14
C       9.25      11.75      37.85
C       9.33      12.97      38.56
C       8.09      15.75      39.54
C       9.11      16.66      39.83
C       9.91      16.12       0.39
C       9.43      14.85       0.72
C      11.01      16.68       1.07
C      11.62      15.94       2.10
C      11.16      14.64       2.44
C      10.05      14.10       1.74
C       7.12      16.06      38.56
C       7.21      17.28      37.85
C       8.27      18.18      38.14
C       9.21      17.88      39.15
C       8.23      14.51      40.36
C      23.99      15.01      12.58
C      23.71      16.35      12.87
C      -9.22      16.77      13.87
C      -8.36      15.72      14.20
C      -7.40      15.88      15.22
C      -7.32      17.11      15.91
C      -8.20      18.16      15.58
C      -9.15      18.00      14.55
C      22.71      17.05      12.18
C      21.98      16.38      11.18
C      22.22      15.02      10.89
C      23.24      14.33      11.59
C      -7.53      14.02      12.58
C      -7.26      12.68      12.87
C      25.68      12.25      13.87
C      24.82      13.31      14.20
C      25.61      11.02      14.54
C      24.67      10.86      15.58
C      23.78      11.91      15.91
C      23.85      13.14      15.22
C      -6.78      14.70      11.59
C      -5.77      14.01      10.89
C      -5.52      12.65      11.18
C      -6.25      11.98      12.18
C      17.67       0.61      26.06
C      18.97       0.19      26.35
C       2.01      28.49      27.35
C       0.67      28.28      27.68
C       0.33      27.36      28.70
C       1.36      26.68      29.40
C       2.71      26.92      29.06
C       3.05      27.82      28.03
C      20.08       0.71      25.66
C      19.87       1.68      24.66
C      18.57       2.14      24.37
C      17.46       1.61      25.08
C      -1.22      28.41      26.06
C      -2.52      28.84      26.35
C      14.45       0.53      27.35
C      15.79       0.75      27.68
C      13.41       1.20      28.03
C      13.75       2.10      29.06
C      15.10       2.35      29.39
C      16.13       1.67      28.70
C      -1.01      27.42      25.08
C      -2.11      26.88      24.37
C      -3.41      27.35      24.66
C      -3.63      28.32      25.66
C      -0.22      29.15      26.87
C      14.96       5.57      31.27
C      14.54       5.09      32.54
C      14.05       5.96      33.52
C      13.95       7.35      33.28
C      14.38       7.84      32.02
C      14.89       6.97      31.04
C      13.35       8.22      34.24
C      13.76       8.20      35.59
C      13.13       9.01      36.55
C      12.05       9.85      36.19
C      11.64       9.87      34.84
C      12.29       9.08      33.87
C      11.35      10.62      37.27
C      15.40       4.68      30.16
C      14.02      13.15       4.31
C      13.81      13.76       5.58
C      14.81      13.74       6.56
C      16.07      13.14       6.31
C      16.27      12.52       5.06
C      15.26      12.52       4.08
C      17.12      13.22       7.28
C      16.90      12.87       8.63
C      17.92      13.02       9.59
C      19.19      13.54       9.23
C      19.40      13.88       7.87
C      18.39      13.71       6.91
C      20.20      13.75      10.30
C      13.03      13.22       3.20
C      21.06      10.18      17.80
C      21.69      10.06      19.06
C      21.17       9.19      20.05
C      20.02       8.41      19.80
C      19.38       8.55      18.55
C      19.88       9.43      17.57
C      19.57       7.47      20.76
C      19.38       7.83      22.12
C      19.00       6.87      23.07
C      18.81       5.51      22.72
C      18.99       5.16      21.36
C      19.35       6.12      20.40
C      18.49       4.53      23.79
C      21.61      11.00      16.68
C       1.50      23.45      31.27
C       1.92      23.94      32.54
C       2.41      23.06      33.52
C       2.51      21.67      33.28
C       2.07      21.18      32.02
C       1.57      22.06      31.04
C       3.10      20.81      34.24
C       2.69      20.82      35.59
C       3.33      20.01      36.55
C       4.41      19.17      36.19
C       4.82      19.15      34.84
C       4.17      19.95      33.87
C       5.11      18.40      37.27
C       1.06      24.34      30.16
C       2.44      15.87       4.32
C       2.65      15.26       5.58
C       1.65      15.28       6.57
C       0.39      15.89       6.32
C       0.19      16.51       5.06
C       1.20      16.51       4.09
C      -0.66      15.81       7.28
C      -0.44      16.15       8.63
C      -1.46      16.00       9.59
C      -2.73      15.49       9.23
C      -2.95      15.15       7.88
C      -1.93      15.32       6.92
C      -3.74      15.27      10.31
C       3.43      15.80       3.20
C      -4.60      18.85      17.79
C      -5.23      18.97      19.06
C      -4.71      19.83      20.04
C      -3.56      20.61      19.79
C      -2.92      20.48      18.54
C      -3.42      19.60      17.56
C      -3.11      21.56      20.76
C      -2.92      21.20      22.11
C      -2.54      22.16      23.07
C      -2.35      23.51      22.71
C      -2.53      23.87      21.36
C      -2.90      22.91      20.39
C      -2.03      24.50      23.79
C      -5.15      18.02      16.68
C      25.13      14.51       2.39
C       8.37      13.28      28.54
C       7.35      12.37      28.83
C       6.55      12.91      29.83
C       7.03      14.18      30.16
C       6.40      14.93      31.18
C       5.30      14.38      31.88
C       4.84      13.08      31.54
C       5.45      12.35      30.51
C       7.25      11.15      28.14
C       8.19      10.85      27.14
C       9.25      11.75      26.85
C       9.33      12.97      27.56
C       8.09      15.75      28.54
C       9.11      16.66      28.83
C       9.91      16.12      29.84
C       9.43      14.85      30.16
C      11.01      16.68      30.51
C      11.62      15.94      31.54
C      11.16      14.64      31.88
C      10.05      14.10      31.18
C       7.12      16.06      27.56
C       7.21      17.28      26.85
C       8.27      18.18      27.14
C       9.21      17.88      28.15
C       8.23      14.51      29.36
C      23.99      15.01       1.58
C      23.71      16.35       1.87
C      -9.22      16.77       2.87
C      -8.36      15.72       3.20
C      -7.40      15.88       4.22
C      -7.32      17.11       4.91
C      -8.20      18.16       4.58
C      -9.15      18.00       3.55
C      22.71      17.05       1.18
C      21.98      16.38       0.18
C      22.22      15.02      40.33
C      23.24      14.33       0.59
C      -7.53      14.02       1.58
C      -7.26      12.68       1.87
C      25.68      12.25       2.87
C      24.82      13.31       3.20
C      25.61      11.02       3.54
C      24.67      10.86       4.58
C      23.78      11.91       4.91
C      23.85      13.14       4.22
C      -6.78      14.70       0.59
C      -5.77      14.01      40.33
C      -5.52      12.65       0.18
C      -6.25      11.98       1.18
C      17.67       0.61      15.06
C      18.97       0.19      15.35
C       2.01      28.49      16.35
C       0.67      28.28      16.68
C       0.33      27.36      17.70
C       1.36      26.68      18.40
C       2.71      26.92      18.06
C       3.05      27.82      17.03
C      20.08       0.71      14.66
C      19.87       1.68      13.66
C      18.57       2.14      13.37
C      17.46       1.61      14.08
C      -1.22      28.41      15.06
C      -2.52      28.84      15.35
C      14.45       0.53      16.35
C      15.79       0.75      16.68
C      13.41       1.20      17.03
C      13.75       2.10      18.06
C      15.10       2.35      18.39
C      16.13       1.67      17.70
C      -1.01      27.42      14.08
C      -2.11      26.88      13.37
C      -3.41      27.35      13.66
C      -3.63      28.32      14.66
C      -0.22      29.15      15.87
C      14.96       5.57      20.27
C      14.54       5.09      21.54
C      14.05       5.96      22.52
C      13.95       7.35      22.28
C      14.38       7.84      21.02
C      14.89       6.97      20.04
C      13.35       8.22      23.24
C      13.76       8.20      24.59
C      13.13       9.01      25.55
C      12.05       9.85      25.19
C      11.64       9.87      23.84
C      12.29       9.08      22.87
C      11.35      10.62      26.27
C      15.40       4.68      19.16
C      14.02      13.15      33.76
C      13.81      13.76      35.02
C      14.81      13.74      36.00
C      16.07      13.14      35.76
C      16.27      12.52      34.50
C      15.26      12.52      33.52
C      17.12      13.22      36.72
C      16.90      12.87      38.07
C      17.92      13.02      39.03
C      19.19      13.54      38.67
C      19.40      13.88      37.31
C      18.39      13.71      36.35
C      20.20      13.75      39.75
C      13.03      13.22      32.64
C      21.06      10.18       6.80
C      21.69      10.06       8.06
C      21.17       9.19       9.05
C      20.02       8.41       8.80
C      19.38       8.55       7.55
C      19.88       9.43       6.57
C      19.57       7.47       9.76
C      19.38       7.83      11.12
C      19.00       6.87      12.07
C      18.81       5.51      11.72
C      18.99       5.16      10.36
C      19.35       6.12       9.40
C      18.49       4.53      12.79
C      21.61      11.00       5.68
C       1.50      23.45      20.27
C       1.92      23.94      21.54
C       2.41      23.06      22.52
C       2.51      21.67      22.28
C       2.07      21.18      21.02
C       1.57      22.06      20.04
C       3.10      20.81      23.24
C       2.69      20.82      24.59
C       3.33      20.01      25.55
C       4.41      19.17      25.19
C       4.82      19.15      23.84
C       4.17      19.95      22.87
C       5.11      18.40      26.27
C       1.06      24.34      19.16
C       2.44      15.87      33.76
C       2.65      15.26      35.02
C       1.65      15.28      36.01
C       0.39      15.89      35.76
C       0.19      16.51      34.51
C       1.20      16.51      33.53
C      -0.66      15.81      36.72
C      -0.44      16.15      38.08
C      -1.46      16.00      39.03
C      -2.73      15.49      38.68
C      -2.95      15.15      37.32
C      -1.93      15.32      36.36
C      -3.74      15.27      39.75
C       3.43      15.80      32.64
C      -4.60      18.85       6.79
C      -5.23      18.97       8.06
C      -4.71      19.83       9.04
C      -3.56      20.61       8.79
C      -2.92      20.48       7.54
C      -3.42      19.60       6.56
C      -3.11      21.56       9.76
C      -2.92      21.20      11.11
C      -2.54      22.16      12.07
C      -2.35      23.51      11.71
C      -2.53      23.87      10.36
C      -2.90      22.91       9.39
C      -2.03      24.50      12.79
C      -5.15      18.02       5.68
C      25.13      14.51      31.83
C       8.37      13.28      17.54
C       7.35      12.37      17.83
C       6.55      12.91      18.83
C       7.03      14.18      19.16
C       6.40      14.93      20.18
C       5.30      14.38      20.88
C       4.84      13.08      20.54
C       5.45      12.35      19.51
C       7.25      11.15      17.14
C       8.19      10.85      16.14
C       9.25      11.75      15.85
C       9.33      12.97      16.56
C       8.09      15.75      17.54
C       9.11      16.66      17.83
C       9.91      16.12      18.84
C       9.43      14.85      19.16
C      11.01      16.68      19.51
C      11.62      15.94      20.54
C      11.16      14.64      20.88
C      10.05      14.10      20.18
C       7.12      16.06      16.56
C       7.21      17.28      15.85
C       8.27      18.18      16.14
C       9.21      17.88      17.15
C       8.23      14.51      18.36
C      23.99      15.01      31.02
C      23.71      16.35      31.31
C      -9.22      16.77      32.31
C      -8.36      15.72      32.64
C      -7.40      15.88      33.66
C      -7.32      17.11      34.36
C      -8.20      18.16      34.02
C      -9.15      18.00      32.99
C      22.71      17.05      30.62
C      21.98      16.38      29.62
C      22.22      15.02      29.33
C      23.24      14.33      30.04
C      -7.53      14.02      31.02
C      -7.26      12.68      31.31
C      25.68      12.25      32.31
C      24.82      13.31      32.64
C      25.61      11.02      32.99
C      24.67      10.86      34.02
C      23.78      11.91      34.36
C      23.85      13.14      33.66
C      -6.78      14.70      30.04
C      -5.77      14.01      29.33
C      -5.52      12.65      29.62
C      -6.25      11.98      30.62
C      17.67       0.61       4.06
C      18.97       0.19       4.35
C       2.01      28.49       5.35
C       0.67      28.28       5.68
C       0.33      27.36       6.70
C       1.36      26.68       7.40
C       2.71      26.92       7.06
C       3.05      27.82       6.03
C      20.08       0.71       3.66
C      19.87       1.68       2.66
C      18.57       2.14       2.37
C      17.46       1.61       3.08
C      -1.22      28.41       4.06
C      -2.52      28.84       4.35
C      14.45       0.53       5.35
C      15.79       0.75       5.68
C      13.41       1.20       6.03
C      13.75       2.10       7.06
C      15.10       2.35       7.39
C      16.13       1.67       6.70
C      -1.01      27.42       3.08
C      -2.11      26.88       2.37
C      -3.41      27.35       2.66
C      -3.63      28.32       3.66
C      -0.22      29.15       4.87
C      14.96       5.57       9.27
C      14.54       5.09      10.54
C      14.05       5.96      11.52
C      13.95       7.35      11.28
C      14.38       7.84      10.02
C      14.89       6.97       9.04
C      13.35       8.22      12.24
C      13.76       8.20      13.59
C      13.13       9.01      14.55
C      12.05       9.85      14.19
C      11.64       9.87      12.84
C      12.29       9.08      11.87
C      11.35      10.62      15.27
C      15.40       4.68       8.16
C      14.02      13.15      22.76
C      13.81      13.76      24.02
C      14.81      13.74      25.00
C      16.07      13.14      24.76
C      16.27      12.52      23.50
C      15.26      12.52      22.52
C      17.12      13.22      25.72
C      16.90      12.87      27.07
C      17.92      13.02      28.03
C      19.19      13.54      27.67
C      19.40      13.88      26.31
C      18.39      13.71      25.35
C      20.20      13.75      28.75
C      13.03      13.22      21.64
C      21.06      10.18      36.24
C      21.69      10.06      37.50
C      21.17       9.19      38.49
C      20.02       8.41      38.24
C      19.38       8.55      36.99
C      19.88       9.43      36.01
C      19.57       7.47      39.20
C      19.38       7.83       0.12
C      19.00       6.87       1.07
C      18.81       5.51       0.72
C      18.99       5.16      39.80
C      19.35       6.12      38.84
C      18.49       4.53       1.79
C      21.61      11.00      35.12
C       1.50      23.45       9.27
C       1.92      23.94      10.54
C       2.41      23.06      11.52
C       2.51      21.67      11.28
C       2.07      21.18      10.02
C       1.57      22.06       9.04
C       3.10      20.81      12.24
C       2.69      20.82      13.59
C       3.33      20.01      14.55
C       4.41      19.17      14.19
C       4.82      19.15      12.84
C       4.17      19.95      11.87
C       5.11      18.40      15.27
C       1.06      24.34       8.16
C       2.44      15.87      22.76
C       2.65      15.26      24.02
C       1.65      15.28      25.01
C       0.39      15.89      24.76
C       0.19      16.51      23.51
C       1.20      16.51      22.53
C      -0.66      15.81      25.72
C      -0.44      16.15      27.08
C      -1.46      16.00      28.03
C      -2.73      15.49      27.68
C      -2.95      15.15      26.32
C      -1.93      15.32      25.36
C      -3.74      15.27      28.75
C       3.43      15.80      21.64
C      -4.60      18.85      36.23
C      -5.23      18.97      37.50
C      -4.71      19.83      38.48
C      -3.56      20.61      38.24
C      -2.92      20.48      36.98
C      -3.42      19.60      36.00
C      -3.11      21.56      39.20
C      -2.92      21.20       0.11
C      -2.54      22.16       1.07
C      -2.35      23.51       0.71
C      -2.53      23.87      39.80
C      -2.90      22.91      38.84
C      -2.03      24.50       1.79
C      -5.15      18.02      35.12
N      11.79      13.98       3.51
N      10.15      11.39      36.83
N       4.67      15.04       3.52
N       6.31      17.64      36.83
N      22.89      11.69      16.99
N      21.46      14.42       9.86
N      -6.43      17.33      16.99
N      -5.00      14.62       9.87
N      15.36       3.23      30.47
N      18.42       3.11      23.35
N       1.10      25.80      30.47
N      -1.97      25.92      23.35
N      11.79      13.98      32.96
N      10.15      11.39      25.83
N       4.67      15.04      32.96
N       6.31      17.64      25.83
N      22.89      11.69       5.99
N      21.46      14.42      39.30
N      -6.43      17.33       5.99
N      -5.00      14.62      39.31
N      15.36       3.23      19.47
N      18.42       3.11      12.35
N       1.10      25.80      19.47
N      -1.97      25.92      12.35
N      11.79      13.98      21.96
N      10.15      11.39      14.83
N       4.67      15.04      21.96
N       6.31      17.64      14.83
N      22.89      11.69      35.44
N      21.46      14.42      28.30
N      -6.43      17.33      35.43
N      -5.00      14.62      28.31
N      15.36       3.23       8.47
N      18.42       3.11       1.35
N       1.10      25.80       8.47
N      -1.97      25.92       1.35
