30

H       1.14       4.31       9.62
H       1.16       1.06       6.02
H       1.06       6.64       6.09
H       0.89       4.64       0.36
H       0.95       6.73       4.04
H       0.89       6.74       1.64
H       1.09       1.17       3.66
H       0.65       0.95       8.09
C       1.17       6.81       8.68
C       1.08       3.15       7.79
C       1.11       5.57       7.90
C       0.93       4.60       1.45
C       0.93       5.79       2.17
C       0.96       5.77       3.56
C       1.01       4.54       4.28
C       1.02       3.33       3.53
C       1.04       4.48       5.71
C       1.06       3.21       6.37
C       1.09       2.04       5.59
C       1.07       2.10       4.20
C       1.06       5.65       6.51
C       1.12       4.34       8.53
C       0.98       3.38       2.11
C       0.93       2.15       1.30
C       1.02       1.86       8.55
O       0.05       7.39       8.96
O       2.34       7.24       9.02
O       2.04       1.57       1.01
O      -0.25       1.73       0.96
O       1.38       1.80       9.71
