630

C      44.42      23.44      20.44
C      43.39      22.54      20.12
C      42.59      23.11      19.15
C      43.09      24.38      18.83
C      42.45      25.17      17.85
C      41.29      24.68      17.19
C      40.80      23.39      17.55
C      41.44      22.60      18.52
C      43.28      21.30      20.75
C      44.24      20.95      21.72
C      45.30      21.84      22.08
C      45.38      23.10      21.42
C      45.49      24.98      18.83
C      45.99      26.25      19.12
C      45.22      26.80      20.15
C      44.19      25.90      20.44
C      45.35      27.99      20.90
C      44.43      28.25      21.93
C      43.34      27.37      22.20
C      43.23      26.18      21.44
C      46.07      24.18      17.83
C      47.15      24.67      17.07
C      47.62      25.99      17.34
C      47.07      26.77      18.37
C      44.29      24.67      19.63
C      42.41      27.59      23.21
C      47.67      23.87      16.05
C      46.25      21.48      23.03
C      40.63      25.46      16.24
C      10.27      50.20      18.82
C      11.29      51.10      19.15
C      12.09      50.53      20.13
C      11.59      49.27      20.45
C      12.23      48.48      21.43
C      13.39      48.97      22.09
C      13.86      50.27      21.74
C      13.23      51.05      20.76
C      11.40      52.34      18.51
C      10.46      52.67      17.53
C       9.39      51.79      17.18
C       9.31      50.54      17.84
C      10.51      47.73      18.84
C       9.50      46.82      19.16
C       8.66      47.41      20.11
C       9.19      48.66      20.43
C       7.45      46.99      20.69
C       6.79      47.85      21.59
C       7.34      49.10      21.97
C       8.56      49.50      21.37
C      11.50      47.42      17.90
C      11.53      46.14      17.30
C      10.54      45.19      17.68
C       9.51      45.53      18.58
C      10.39      48.97      19.64
C       6.72      49.98      22.86
C      12.57      45.85      16.41
C       8.47      52.13      16.19
C      14.01      48.22      23.08
C      27.39      18.74       7.64
C      26.36      19.46       7.03
C      25.56      20.02       8.01
C      26.06      19.67       9.26
C      25.42      20.12      10.44
C      24.26      20.93      10.34
C      23.78      21.27       9.04
C      24.42      20.82       7.88
C      26.26      19.54       5.63
C      27.22      18.87       4.85
C      28.27      18.11       5.44
C      28.35      18.06       6.86
C      28.46      19.36       9.79
C      28.97      18.47      10.74
C      28.19      17.31      10.70
C      27.16      17.50       9.78
C      28.32      16.07      11.36
C      27.40      15.04      11.06
C      26.31      15.25      10.17
C      26.21      16.50       9.52
C      29.05      20.63       9.59
C      30.13      21.04      10.40
C      30.59      20.15      11.41
C      30.04      18.86      11.57
C      27.27      18.82       9.12
C      25.38      14.26       9.85
C      30.64      22.32      10.21
C      29.23      17.48       4.66
C      23.60      21.36      11.49
C      27.30      54.91      31.63
C      28.32      54.19      32.24
C      29.12      53.62      31.27
C      28.62      53.97      30.01
C      29.26      53.52      28.84
C      30.41      52.70      28.93
C      30.89      52.35      30.23
C      30.26      52.81      31.40
C      28.43      54.11      33.64
C      27.48      54.79      34.42
C      26.42      55.54      33.83
C      26.34      55.59      32.41
C      27.53      56.13      29.48
C      26.52      56.31      28.53
C      25.69      55.19      28.57
C      26.21      54.29      29.49
C      24.47      54.90      27.91
C      23.81      53.69      28.21
C      24.37      52.73      29.10
C      25.59      53.05      29.75
C      28.53      57.10      29.68
C      28.56      58.27      28.87
C      27.56      58.41      27.87
C      26.53      57.45      27.71
C      27.42      54.82      30.15
C      23.75      51.53      29.42
C      29.59      59.18      29.07
C      25.50      56.23      34.61
C      31.04      52.22      27.79
C      10.36      32.17       9.97
C       9.34      32.34      10.90
C       8.53      31.21      10.90
C       9.03      30.30       9.96
C       8.39      29.06       9.77
C       7.24      28.74      10.52
C       6.75      29.69      11.46
C       7.39      30.93      11.66
C       9.23      33.51      11.67
C      10.19      34.52      11.48
C      11.25      34.39      10.53
C      11.32      33.19       9.78
C      11.43      30.00       9.44
C      11.94      29.62       8.19
C      11.16      30.23       7.20
C      10.13      30.94       7.84
C      11.30      30.29       5.80
C      10.38      31.06       5.06
C       9.29      31.73       5.68
C       9.18      31.66       7.09
C      12.02      29.54      10.63
C      13.10      28.63      10.59
C      13.57      28.21       9.31
C      13.01      28.71       8.11
C      10.24      30.85       9.30
C       8.36      32.50       4.99
C      13.62      28.16      11.79
C      12.20      35.39      10.37
C       6.58      27.53      10.32
C      44.32      41.47      29.31
C      45.35      41.30      28.37
C      46.15      42.43      28.37
C      45.64      43.34      29.30
C      46.28      44.59      29.50
C      47.44      44.91      28.74
C      47.92      43.96      27.79
C      47.28      42.72      27.60
C      45.45      40.13      27.61
C      44.51      39.11      27.81
C      43.44      39.25      28.75
C      43.37      40.45      29.51
C      44.56      42.72      31.44
C      43.55      43.45      32.07
C      42.71      43.98      31.08
C      43.24      43.63      29.83
C      41.50      44.69      31.16
C      40.84      45.04      29.96
C      41.40      44.75      28.68
C      42.61      44.03      28.64
C      45.56      42.06      32.18
C      45.58      42.18      33.59
C      44.59      42.98      34.21
C      43.56      43.59      33.47
C      44.44      42.79      29.97
C      40.78      45.07      27.48
C      46.62      41.56      34.28
C      42.53      38.22      28.95
C      48.07      46.14      28.90
C      42.08      29.89      24.36
C      41.40      30.00      25.59
C      41.37      31.26      26.23
C      42.03      32.39      25.69
C      42.77      32.25      24.47
C      42.73      31.00      23.80
C      41.93      33.63      26.38
C      42.25      33.72      27.76
C      42.28      34.96      28.44
C      41.96      36.14      27.70
C      41.59      36.07      26.33
C      41.52      34.80      25.71
C       4.81      49.27      24.45
C       3.98      50.22      25.07
C       2.87      49.76      25.82
C       2.57      48.38      25.94
C       3.38      47.43      25.26
C       4.53      47.89      24.57
C       1.45      48.01      26.74
C       0.17      48.58      26.53
C      50.10      48.14      27.23
C      50.26      47.08      28.16
C      51.53      46.51      28.42
C       1.58      47.03      27.75
C      12.53      43.80      14.82
C      13.71      43.34      14.20
C      13.65      42.14      13.45
C      12.45      41.39      13.33
C      11.28      41.84      14.02
C      11.33      43.08      14.71
C      12.47      40.21      12.53
C      13.44      39.20      12.75
C      13.40      37.97      12.05
C      12.35      37.77      11.11
C      11.39      38.78      10.85
C      11.50      40.01      11.52
C      49.94      24.33      14.90
C      50.28      23.72      13.67
C       0.40      24.11      13.04
C       1.25      25.11      13.58
C       0.87      25.76      14.80
C      50.78      25.31      15.46
C       2.45      25.43      12.89
C       2.43      25.77      11.51
C       3.59      26.20      10.83
C       4.81      26.30      11.57
C       4.86      25.92      12.94
C       3.69      25.43      13.56
C      25.06      12.12      11.27
C      24.37      10.99      10.75
C      24.35       9.81      11.52
C      25.01       9.72      12.77
C      25.74      10.84      13.26
C      25.71      12.04      12.51
C      24.91       8.49      13.50
C       8.20      55.41      12.89
C       8.22      54.20      13.63
C       7.91      54.25      15.02
C       7.54      55.47      15.63
C       7.47      56.65      14.85
C      21.83      50.51      28.01
C      21.00      49.49      28.53
C      19.90      49.07      27.75
C      19.59      49.66      26.50
C      20.41      50.73      26.01
C      21.55      51.09      26.76
C      18.47      49.15      25.77
C      17.20      49.05      26.38
C      16.05      48.67      25.64
C      16.20      48.39      24.25
C      17.48      48.44      23.64
C      18.61      48.77      24.42
C      29.56      61.58      28.09
C      30.74      62.35      28.00
C      30.67      63.59      27.34
C      46.50      15.91      26.75
C      28.30      63.25      26.80
C      28.36      62.04      27.52
C      46.52      17.20      26.13
C      47.49      17.52      25.15
C      47.45      18.74      24.43
C      46.40      19.65      24.72
C      45.44      19.37      25.72
C      45.55      18.17      26.46
C      32.92      23.09      11.18
C      33.25      24.46      11.27
C      34.45      24.81      11.93
C      35.30      23.84      12.52
C      34.92      22.46      12.48
C      33.75      22.11      11.75
C      36.50      24.28      13.15
C      36.48      25.30      14.13
C      37.64      25.68      14.84
C      38.86      24.99      14.55
C      38.91      24.00      13.55
C      37.74      23.70      12.81
C       8.03      32.35       2.42
C       7.35      33.35       1.71
C       7.32      33.27       0.30
C      25.00      56.31      41.30
C       8.72      31.25       0.33
C       8.68      31.30       1.74
C      24.90      56.30      39.88
C      25.23      57.44      39.11
C      25.25      57.41      37.69
C      24.93      56.18      37.04
C      24.56      55.04      37.79
C      24.49      55.13      39.20
C      38.86      46.81      27.30
C      38.03      46.87      26.16
C      36.92      47.75      26.19
C      36.62      48.54      27.32
C      37.43      48.42      28.49
C      38.58      47.60      28.43
C      35.50      49.42      27.25
C      34.22      48.95      26.86
C      33.08      49.77      26.89
C      33.23      51.12      27.34
C      34.50      51.62      27.70
C      35.63      50.78      27.59
C      46.59      41.20      36.85
C      47.77      40.89      37.56
C      47.70      40.84      38.97
C      46.50      41.12      39.68
C      45.33      41.48      38.95
C      45.39      41.46      37.53
C      46.52      41.01      41.10
C      30.46      17.63       0.16
C      30.43      17.63       1.58
C      29.38      16.93       2.23
C      28.42      16.20       1.48
C      28.53      16.16       0.07
C      15.89      26.93      11.97
C      16.23      26.17      13.11
C      17.42      25.42      13.09
C      18.27      25.39      11.95
C      17.89      26.12      10.78
C      16.73      26.93      10.84
C      19.48      24.63      12.02
C      19.46      23.27      12.42
C      20.62      22.47      12.38
C      21.83      23.06      11.93
C      21.89      24.43      11.57
C      20.72      25.21      11.68
H      48.34      26.42      16.76
H      47.40      27.72      18.54
H      46.13      28.63      20.73
H      44.58      29.07      22.51
H      42.49      25.50      21.62
H      45.67      23.25      17.65
H      42.83      26.09      17.63
H      39.96      23.00      17.12
H      41.08      21.67      18.76
H      46.12      23.76      21.64
H      42.54      20.64      20.51
H      44.15      20.03      22.15
H      47.15      23.09      15.73
H      41.84      26.84      23.53
H      47.14      21.92      23.07
H      40.75      26.44      16.21
H      10.57      44.24      17.33
H       8.81      44.84      18.85
H       7.03      46.10      20.42
H       5.87      47.56      21.94
H       8.98      50.41      21.58
H      12.22      48.12      17.69
H      11.85      47.55      21.65
H      14.68      50.68      22.20
H      13.59      51.98      20.53
H       8.57      49.87      17.62
H      12.16      52.99      18.74
H      10.56      53.58      17.07
H      13.37      46.43      16.38
H       7.01      50.93      22.89
H       7.94      51.44      15.72
H      13.54      47.48      23.55
H      31.32      20.44      12.06
H      30.38      18.24      12.30
H      29.10      15.90      11.99
H      27.56      14.13      11.49
H      25.47      16.68       8.84
H      28.65      21.25       8.88
H      25.80      19.85      11.35
H      22.93      21.84       8.92
H      24.05      21.08       6.96
H      29.10      17.53       7.32
H      25.51      20.07       5.18
H      27.13      18.96       3.83
H      30.12      22.99       9.69
H      24.81      14.36       9.04
H      30.12      17.23       5.02
H      23.73      20.91      12.36
H      27.59      59.19      27.21
H      25.83      57.57      26.97
H      24.05      55.58      27.28
H      22.90      53.54      27.78
H      26.00      52.42      30.43
H      29.25      56.94      30.39
H      28.88      53.78      27.92
H      31.71      51.75      30.35
H      30.62      52.55      32.32
H      25.59      56.12      31.94
H      29.18      53.59      34.09
H      27.59      54.74      35.44
H      30.39      58.91      29.59
H      24.03      51.03      30.23
H      24.96      56.98      34.25
H      30.57      52.18      26.91
H      14.29      27.50       9.23
H      13.36      28.39       7.21
H      12.08      29.82       5.34
H      10.53      31.15       4.06
H       8.44      32.16       7.59
H      11.62      29.85      11.53
H       8.77      28.41       9.08
H       5.91      29.51      12.02
H       7.03      31.59      12.34
H      12.07      33.05       9.09
H       8.48      33.63      12.36
H      10.10      35.36      12.07
H      13.10      28.28      12.63
H       7.79      33.15       5.48
H      13.09      35.20       9.97
H       6.70      27.00       9.49
H      44.62      43.16      35.22
H      42.86      44.18      33.94
H      41.08      44.90      32.06
H      39.93      45.49      30.04
H      43.03      43.75      27.74
H      46.27      41.52      31.68
H      45.90      45.24      30.18
H      48.73      44.16      27.20
H      47.64      42.05      26.91
H      42.62      40.59      30.20
H      46.21      40.00      26.93
H      44.62      38.26      27.26
H      47.42      41.24      33.79
H      41.06      44.62      26.64
H      41.99      38.16      29.79
H      47.59      46.92      29.30
H      43.23      30.89      22.92
H      42.56      32.88      28.25
H      41.27      34.76      24.72
H      40.86      31.35      27.12
H      42.87      34.17      30.23
H      42.66      35.81      30.26
H      44.09      33.07      23.14
H      43.75      34.04      24.43
H       5.13      47.22      24.10
H       0.06      49.29      25.79
H       2.50      46.60      27.93
H       2.28      50.46      26.29
H      48.82      49.42      26.28
H      48.09      48.44      27.40
H       3.64      45.49      24.65
H       2.24      45.75      25.48
H      10.50      43.42      15.18
H      14.14      39.34      13.48
H      10.79      40.73      11.35
H      14.50      41.81      12.98
H      15.03      37.19      12.99
H      14.36      36.18      11.87
H       9.36      41.44      14.62
H      10.07      40.21      13.79
H      50.51      25.75      16.35
H       1.53      25.77      11.02
H       3.73      25.18      14.55
H       0.65      23.66      12.15
H       2.64      26.50       9.05
H       4.26      26.85       9.01
H       1.20      27.28      16.13
H       2.23      27.29      14.84
H      26.21      12.86      12.86
H      25.54       7.25      11.92
H      24.25       9.37      15.31
H      23.84       9.00      11.16
H       8.81      53.05      12.04
H       8.61      52.20      13.45
H      27.06      11.59      14.64
H      26.73       9.98      14.84
H      22.16      51.84      26.41
H      17.09      49.33      27.35
H      19.52      48.83      23.96
H      19.30      48.32      28.12
H      14.77      48.85      27.22
H      14.04      48.36      25.82
H      20.66      52.23      24.64
H      19.26      51.37      24.44
H      27.52      61.46      27.59
H      48.19      16.82      24.89
H      44.85      17.97      27.17
H      48.55      16.01      27.29
H      49.09      18.31      23.28
H      48.41      19.79      22.96
H      26.39      62.93      26.14
H      44.12      16.11      25.49
H      33.48      21.13      11.69
H      35.59      25.73      14.38
H      37.78      22.96      12.10
H      34.70      25.80      11.98
H      36.69      27.07      15.99
H      38.31      26.93      16.31
H      35.25      20.55      13.13
H      36.28      21.66      13.77
H       9.18      30.59       2.27
H      25.53      58.29      39.59
H      24.24      54.29      39.73
H      23.83      58.07      41.49
H      25.84      59.36      37.49
H      25.63      58.57      36.05
H      10.04      29.69       0.28
H      26.72      54.40      40.50
H      39.18      47.53      29.25
H      34.11      47.96      26.61
H      36.55      51.15      27.87
H      36.33      47.80      25.35
H      31.79      48.32      26.26
H      31.06      49.77      26.54
H      37.69      48.87      30.47
H      36.29      49.46      29.83
H      44.55      41.70      37.00
H      48.19      42.27      41.39
H      44.84      39.73      41.24
H      48.55      40.60      39.49
H      32.06      18.85       1.78
H      31.39      18.38       3.22
H      43.41      42.21      38.99
H      44.12      42.10      40.48
H      16.46      27.47      10.02
H      18.56      22.84      12.66
H      20.76      26.20      11.40
H      17.68      24.88      13.92
H      19.67      20.77      13.01
H      21.29      20.57      12.73
H      18.23      26.52       8.80
H      19.26      25.40       9.44
N      42.67      34.99      29.74
N      41.37      37.26      25.60
N      40.84      28.83      26.18
N      43.56      33.22      23.94
N      42.46      37.30      28.08
N      42.23      28.71      23.79
N      48.90      48.69      26.92
N      51.64      45.40      29.30
N       4.23      51.61      24.86
N       3.09      46.10      25.17
N      49.25      46.28      28.42
N       5.78      49.65      23.65
N      14.32      37.02      12.35
N      10.30      38.51       9.98
N      14.93      44.04      14.41
N      10.12      41.12      14.10
N      11.94      36.55      10.85
N      12.57      44.84      15.62
N       3.49      26.58       9.53
N       6.06      26.11      13.67
N      49.37      22.80      13.08
N       1.52      26.84      15.33
N       5.73      27.15      11.20
N      48.79      24.08      15.47
N       8.61      53.06      13.00
N       7.31      55.51      17.04
N      23.81      11.07       9.44
N      26.54      10.81      14.37
N       8.40      53.35      15.83
N      25.20      13.20      10.53
N      14.84      48.66      26.27
N      17.59      48.25      22.23
N      21.26      48.98      29.83
N      20.11      51.47      24.90
N      15.19      48.56      23.43
N      22.80      51.01      28.74
N      48.38      18.95      23.45
N      44.35      20.26      25.93
N      31.96      61.81      28.50
N      44.18      15.38      26.13
N      45.99      20.49      23.79
N      29.60      60.36      28.59
N      37.54      26.62      15.82
N      40.11      23.26      13.34
N      32.34      25.43      10.77
N      35.57      21.47      13.14
N      39.78      24.88      15.48
N      31.76      22.72      10.68
N      25.64      58.53      37.02
N      24.34      53.80      37.12
N       6.78      34.45       2.43
N      26.54      54.39      41.45
N      25.43      55.93      35.85
N       8.18      32.44       3.73
N      31.87      49.23      26.57
N      34.62      52.94      28.23
N      38.29      45.99      25.07
N      37.14      49.02      29.69
N      32.22      51.74      27.91
N      39.83      45.93      27.37
N      31.35      18.37       2.25
N      27.33      15.57       2.15
N      48.98      40.73      36.85
N      44.17      41.92      39.53
N      28.97      17.31       3.41
N      46.62      41.37      35.55
N      20.51      21.15      12.71
N      23.09      24.97      11.04
N      15.31      26.12      14.20
N      18.55      26.04       9.59
N      22.75      22.31      11.37
N      14.74      27.55      11.90
O      42.18      37.39      24.65
O      39.75      29.03      26.79
O      40.20      37.31      25.14
O      41.65      28.33      26.99
O      52.09      44.38      28.70
O       4.01      52.34      25.86
O      52.39      45.65      30.28
O       3.54      52.03      23.90
O       9.20      38.59      10.57
O      15.69      44.07      13.41
O      10.29      39.30       8.99
O      15.56      43.53      15.37
O       5.91      26.92      14.62
O      49.91      21.84      12.48
O       6.50      25.02      14.14
O      48.62      23.40      12.27
O       8.13      56.27      17.62
O      22.73      10.44       9.31
O       6.15      55.89      17.31
O      24.63      10.62       8.60
O      18.04      49.27      21.65
O      21.03      47.75      29.96
O      18.34      47.27      21.96
O      20.56      49.60      30.67
O      43.25      19.71      25.70
O      32.72      62.66      29.03
O      44.34      20.72      27.10
O      32.58      61.24      27.58
O      39.96      22.04      13.57
O      32.89      26.43      10.24
O      40.55      23.41      12.17
O      31.59      25.83      11.70
O      25.16      52.92      37.49
O       5.70      34.87       1.95
O      23.17      53.38      37.31
O       7.60      35.40       2.46
O      35.06      52.93      29.41
O      38.06      46.49      23.94
O      35.36      53.66      27.52
O      37.59      44.95      25.19
O      26.22      16.05       1.78
O      49.75      39.84      37.32
O      27.32      14.33       1.96
O      49.61      41.81      36.82
O      22.93      25.39       9.86
O      15.86      26.08      15.33
O      23.52      25.92      11.75
O      14.57      25.11      14.09
