13

H       9.52       7.76      10.63
H       9.03       9.36      12.36
S       6.14       8.48      10.70
O       6.30       6.42       8.55
O       8.52       6.31       8.48
O       5.15      10.39      12.72
O       7.10      10.62      13.82
C       7.46       6.72       8.93
C       7.56       7.72      10.08
C       8.67       8.08      10.80
C       8.38       8.99      11.80
C       7.06       9.29      11.89
C       6.36      10.17      12.89
