13

C      11.42      10.73      13.33
C      11.08      11.87      12.40
C       9.90      12.51      12.31
C       9.89      13.53      11.33
H       9.16      12.31      12.85
S      12.23      12.50      11.31
C      11.11      13.63      10.72
C      11.47      14.52       9.58
H       9.15      14.05      11.13
O      12.61      10.32      13.32
O      10.53      10.27      14.04
O      12.65      14.42       9.13
O      10.60      15.31       9.12
