32

O       6.88       3.25      17.28
O       5.58       1.42      17.24
H       8.07       3.15      14.50
H       4.59       4.18      15.54
H       6.20       4.97      13.06
H       6.53       1.14      12.18
H       5.52       0.51      14.81
H       4.87       0.87      12.71
H       3.85       4.36      13.42
H       3.34       2.66      13.36
O       7.23       4.80      15.28
O       8.09       4.96      11.52
O       8.29       2.75      11.83
O       7.50       0.74      14.50
O       3.34       1.15      15.48
O       2.93       2.92      16.79
H       6.40       5.33      15.23
H       8.07       1.06      13.76
C       4.93       3.21      11.29
C       7.06       3.61      14.53
C       6.59       3.93      13.08
C       6.19       1.27      14.38
C       4.60       3.17      15.09
C       6.05       2.58      15.20
C       5.41       2.99      12.68
C       5.77       1.50      12.91
C       4.20       3.32      13.61
C       6.38       2.26      16.62
N       7.71       3.88      12.12
N       3.58       2.39      15.80
O       5.04       4.39      10.81
O       4.10       2.36      10.85
