22

O       4.07       2.46       7.81
O       6.83       3.56       1.26
O       5.53       1.75       1.44
H       7.16       4.05       6.11
H       3.25       2.46       1.92
H       7.56       3.92       3.69
H       1.88       0.59       2.68
H       2.12      -0.27       4.98
H       3.70       0.71       6.50
C       4.86       3.33       7.39
C       5.56       3.19       3.23
C       4.40       2.60       3.77
C       4.40       2.29       5.14
C       6.42       3.61       5.47
C       6.61       3.59       4.09
C       3.36       2.12       2.94
C       2.58       1.06       3.37
C       2.71       0.57       4.66
C       3.59       1.19       5.55
C       5.27       3.04       6.00
C       5.91       2.88       1.84
O       5.01       4.49       7.99
