23

Zn       4.48      32.43      21.58
Zn       6.03      29.98      22.92
Zn       2.85      29.97      22.93
Zn       4.41      32.10      24.74
C       6.97      31.27      20.44
C       1.99      31.32      20.43
O       4.44      31.12      23.04
O       6.06      32.17      20.43
O       2.93      32.19      20.42
O       6.02      31.72      25.80
O       2.68      31.89      25.65
O       7.18      30.24      24.50
O       1.63      30.25      24.45
C       7.07      31.06      25.48
O       5.60      28.06      22.87
C       1.68      31.14      25.37
O       3.32      28.06      22.86
O       7.11      30.35      21.31
O       1.82      30.40      21.30
O       4.51      34.05      24.44
C       4.46      27.48      22.85
O       4.56      34.30      22.17
C       4.52      34.75      23.37
