23

Zn       4.44      48.97      17.34
Zn       6.10      49.04      14.55
Zn       2.89      49.04      14.55
Zn       4.48      46.41      15.48
C       6.92      50.58      16.94
C       1.86      50.40      16.97
O       4.49      48.37      15.47
O       5.94      50.21      17.67
O       2.75      49.91      17.75
O       6.18      45.67      14.83
O       2.86      45.67      14.65
O       7.29      47.53      14.09
O       1.74      47.54      13.97
C       7.20      46.28      14.36
O       5.64      49.96      12.86
C       1.82      46.29      14.23
O       3.36      50.11      12.97
O       7.15      50.23      15.73
O       1.76      50.18      15.71
O       4.24      45.70      17.33
C       4.49      50.31      12.41
O       4.57      47.52      18.67
C       4.39      46.27      18.46
