23

Zn      13.32      30.37      14.95
Zn      11.70      32.82      13.62
Zn      14.89      32.82      13.61
Zn      13.31      30.72      11.79
C      10.84      31.46      16.13
C      15.79      31.56      16.10
O      13.29      31.69      13.50
O      11.73      30.54      16.11
O      14.93      30.62      16.06
O      11.66      31.06      10.76
O      14.98      30.99      10.81
O      10.48      32.48      12.10
O      16.16      32.40      12.16
C      10.60      31.68      11.11
O      12.18      34.73      13.68
C      16.04      31.61      11.16
O      14.45      34.73      13.43
O      10.74      32.42      15.30
O      15.90      32.54      15.28
O      13.15      28.77      12.06
C      13.32      35.31      13.56
O      13.37      28.51      14.32
C      13.25      28.07      13.12
