29

C       1.34      28.59      23.74
C       0.93      27.25      23.17
C      -0.24      27.05      22.44
C      -0.55      25.79      21.91
C       0.34      24.72      22.14
C       1.52      24.91      22.85
C       1.82      26.18      23.36
C       0.43      23.21      19.78
C      -0.41      23.96      18.93
C      -0.03      24.12      17.59
C       1.15      23.55      17.12
C       1.97      22.79      17.98
C       1.61      22.63      19.32
C       1.59      23.70      15.69
S      -0.04      23.10      21.50
H      -0.96      27.85      22.32
H      -1.44      25.65      21.31
H       2.23      24.10      22.95
H       2.71      26.32      23.96
H      -1.30      24.45      19.31
H      -0.66      24.66      16.90
H       2.84      22.29      17.57
H       2.27      22.09      20.00
O       0.48      29.43      24.21
O      -1.49      22.97      21.51
O       0.81      22.14      22.21
O       0.75      24.24      14.87
O       2.73      23.27      15.42
O       2.58      28.82      23.73
