29

C       4.23      20.64       1.92
C       3.66      21.73       2.77
C       2.50      22.44       2.44
C       2.06      23.50       3.24
C       2.81      23.86       4.37
C       3.98      23.19       4.70
C       4.41      22.12       3.91
C       2.78      26.67       4.35
C       1.98      27.02       3.24
C       2.42      28.05       2.41
C       3.61      28.73       2.69
C       4.37      28.40       3.83
C       3.96      27.35       4.65
C       4.10      29.84       1.81
H       1.94      22.17       1.55
H       1.18      24.07       2.96
H       4.58      23.54       5.54
H       5.31      21.57       4.18
H       1.09      26.45       3.00
H       1.83      28.34       1.54
S       2.28      25.27       5.33
H       4.57      27.04       5.49
H       5.23      29.02       4.07
O       3.56      19.81       1.19
O       5.50      20.61       1.99
O       5.12      30.46       2.17
O       3.39      30.09       0.74
O       3.00      25.26       6.60
O       0.82      25.26       5.27
