136

Zn      12.60       5.36      11.37
Zn       8.08       0.90      10.65
Zn       0.81       7.89       3.31
Zn       5.32      12.35       4.03
Zn       5.31       8.22      11.02
Zn       8.09       5.03       3.66
H      13.12       8.68      12.99
H       4.02       6.75      13.87
H      12.42       8.58       0.78
H       3.14       6.70       1.60
H       7.46       7.26       9.12
H       9.29       5.60       9.07
H       2.38       6.09       7.56
H       4.76       0.42       9.03
H       6.80       9.50       8.16
H       4.49       0.75       6.56
H       6.49      10.00       5.74
H       6.25       6.06      12.91
H       7.88       4.21      12.95
H       7.48      11.13      14.47
H       0.28       4.57       1.69
H       9.39       6.50       0.82
H       0.99       4.67      13.90
H      10.26       6.55      13.08
H       5.94       5.99       5.57
H       4.11       7.65       5.61
H      11.03       7.16       7.13
H       8.64      12.83       5.65
H       6.61       3.75       6.52
H       8.91      12.50       8.12
H       6.92       3.25       8.94
H       7.16       7.19       1.78
H       5.52       9.04       1.73
H       5.93       2.12       0.21
C       2.27       7.34      11.80
C       2.14       7.64      13.23
C       0.99       8.30      13.69
C       3.09       7.23      14.17
C       0.42       8.08       0.37
C       2.44       7.04       0.84
C       1.74       6.61       9.82
C       3.04       7.12       9.77
C       4.00       7.23       8.65
C       0.92       5.88       8.84
C      13.17       2.62      11.24
C      11.72       2.72      11.07
C       7.62       6.60       9.97
C       8.64       5.64       9.94
C       6.23      11.25      10.23
C       5.93      11.39       8.80
C       5.29      12.55       8.33
C       6.33      10.43       7.85
C       5.14      12.74       6.97
C       6.16      10.71       6.50
C       6.97      11.77      12.21
C       6.44      10.49      12.26
C       6.32       9.53      13.38
C       7.71      12.59      13.18
C      10.82       0.29      10.79
C      10.73       1.75      10.95
C       6.91       5.89      12.06
C       7.85       4.87      12.08
C      11.13       5.91       2.89
C      11.27       5.61       1.46
C      12.42       4.95       0.99
C      10.32       6.02       0.51
C      12.99       5.17      14.31
C      10.96       6.21      13.84
C      11.66       6.64       4.87
C      10.37       6.13       4.92
C       9.41       6.02       6.04
C      12.48       7.37       5.84
C       0.23      10.63       3.45
C       1.69      10.53       3.61
C       5.78       6.65       4.72
C       4.77       7.60       4.74
C       7.17       2.00       4.46
C       7.48       1.86       5.88
C       8.12       0.70       6.35
C       7.07       2.82       6.83
C       8.27       0.51       7.72
C       7.25       2.54       8.18
C       6.44       1.48       2.47
C       6.96       2.76       2.43
C       7.09       3.72       1.31
C       5.70       0.66       1.50
C       2.58      12.96       3.90
C       2.67      11.50       3.73
C       6.50       7.36       2.62
C       5.56       8.38       2.60
C       9.78       3.70      11.01
C       8.74       4.75      11.01
C       3.63       9.55       3.67
C       4.66       8.50       3.67
N       1.30       7.61       1.28
N       1.26       6.76      11.09
N       3.37       7.57      11.02
N      11.11       3.95      11.09
N       5.60      11.85       6.06
N       6.82      12.26      10.93
N       5.99      10.16      11.00
N       9.52       2.37      10.93
N      12.10       5.64      13.40
N      12.14       6.49       3.59
N      10.04       5.68       3.66
N       2.30       9.30       3.59
N       7.81       1.40       8.62
N       6.59       0.99       3.75
N       7.42       3.09       3.68
N       3.89      10.87       3.75
N       6.78       6.74      11.01
N       6.63       6.51       3.67
O       3.68       6.71       7.53
O       5.09       7.85       8.89
O       1.41       5.64       7.65
O      12.67       5.47       9.20
O       0.95       3.70      11.48
O       0.86       1.49      11.15
O       6.85       9.84      14.49
O       5.68       8.44      13.14
O       7.93      12.10      14.37
O       7.97       0.83      12.82
O       9.88      12.53      10.54
O      12.09      12.59      10.88
O       9.73       6.54       7.15
O       8.32       5.40       5.80
O      12.00       7.60       7.03
O       0.74       7.78       5.48
O      12.45       9.55       3.20
O      12.55      11.76       3.54
O       6.56       3.41       0.19
O       7.72       4.81       1.54
O       5.47       1.15       0.31
O       5.43      12.42       1.86
O       3.52       0.72       4.14
O       1.31       0.65       3.80
