348

C       3.87       8.37      34.61
C       2.81       9.17      34.08
C       2.71       9.40      32.68
C       3.54       8.63      31.83
C       4.52       7.73      32.30
C       4.76       7.69      33.71
C       1.89       9.72      35.00
C       5.89       7.06      34.26
C       4.07       8.29       0.53
C       3.09       8.80       1.44
C       3.26       8.66       2.85
C       4.53       8.24       3.31
C       5.57       7.81       2.45
C       5.28       7.71       1.05
C       2.00       9.51       0.88
C       6.16       7.10       0.14
C       5.16       6.94      31.30
C       6.85       7.56       3.01
C       2.27       8.85       3.85
C       1.87      10.39      32.09
C      14.58       8.16      10.94
C      15.81       8.69      10.41
C      -4.81       8.66       9.01
C      14.98       8.32       8.16
C      13.70       7.93       8.63
C      13.56       7.74      10.04
C      -4.12       9.21      11.34
C      12.44       7.08      10.60
C      14.41       8.03      12.36
C      15.35       8.62      13.27
C      15.14       8.55      14.68
C      14.14       7.66      15.14
C      13.25       6.97      14.28
C      13.31       7.28      12.89
C      -4.36       9.21      12.71
C      12.34       6.82      11.97
C      12.70       7.77       7.64
C      12.39       5.99      14.84
C      -5.07       9.32      15.68
C      -3.54       8.89       8.42
C      -1.38      17.06      22.78
C      -1.54      15.74      22.25
C      -1.69      15.54      20.84
C      -1.44      16.65      20.00
C      -1.15      17.95      20.47
C       9.20       0.09      21.88
C      -1.56      14.67      23.17
C       9.18       1.39      22.43
C      -1.41      17.28      24.20
C      -1.37      16.17      25.10
C      -1.33      16.39      26.51
C      -1.61      17.70      26.97
C       8.69       0.74      26.12
C       8.92       0.53      24.72
C      -1.44      14.87      24.55
C       9.01       1.61      23.80
C       9.65       0.82      19.47
C       8.26       1.98      26.67
C      -0.99      15.44      27.51
C      -2.13      14.32      20.25
C       7.41       3.13      28.74
C       7.02       3.77      31.02
C       6.39       4.95      30.61
C       6.78       4.33      28.31
C       6.47       4.69      26.98
C       8.28       7.72       5.07
C       9.02       7.74       7.35
C      10.36       7.69       6.94
C       9.63       7.66       4.64
C      10.10       7.76       3.31
C      11.82       4.67      16.90
C      11.46       4.02      19.19
C      10.75       2.88      18.78
C      11.09       3.53      16.48
C      10.94       3.08      15.15
C       0.17      13.36      28.14
C       0.51      12.66      30.41
C       1.20      11.51      29.97
C       0.85      12.21      27.68
C       1.09      11.87      26.33
C      -0.11       8.88       4.47
C      -0.89       8.94       6.74
C      -2.23       8.91       6.30
C      -1.45       8.86       4.02
C      -1.86       8.83       2.66
C      -3.86      11.36      16.31
C      -3.41      12.01      18.58
C      -2.77      13.18      18.13
C      -3.20      12.53      15.85
C      -3.02      12.90      14.49
C      -6.63      14.43      34.61
C      -7.69      15.23      34.08
C      -7.79      15.46      32.68
C      -6.96      14.69      31.83
C      -5.98      13.79      32.30
C      -5.74      13.76      33.71
C      -8.61      15.78      35.00
C      -4.61      13.12      34.26
C      -6.43      14.35       0.53
C      -7.41      14.86       1.44
C      -7.24      14.72       2.85
C      -5.97      14.31       3.31
C      -4.93      13.87       2.45
C      -5.22      13.78       1.05
C      -8.50      15.57       0.88
C      -4.34      13.16       0.14
C      -5.34      13.00      31.30
C      -3.65      13.62       3.01
C      -8.23      14.91       3.85
C      -8.63      16.45      32.09
C       4.08      14.23      10.94
C       5.31      14.75      10.41
C       5.56      14.72       9.01
C       4.48      14.38       8.16
C       3.20      13.99       8.63
C       3.06      13.80      10.04
C       6.24      15.27      11.34
C       1.94      13.14      10.60
C       3.91      14.09      12.36
C       4.85      14.69      13.27
C       4.64      14.61      14.68
C       3.64      13.72      15.14
C       2.75      13.04      14.28
C       2.81      13.34      12.89
C       6.01      15.27      12.71
C       1.84      12.88      11.97
C       2.20      13.83       7.64
C       1.89      12.05      14.84
C       5.30      15.38      15.68
C       6.83      14.95       8.42
C      -1.45       5.05      22.78
C      -1.61       3.73      22.25
C      -1.76       3.53      20.84
C      -1.51       4.63      20.00
C      -1.22       5.94      20.47
C      -1.30       6.16      21.88
C      19.24       2.66      23.17
C      -1.32       7.45      22.43
C      -1.48       5.27      24.20
C      -1.43       4.16      25.10
C      -1.39       4.38      26.51
C      -1.67       5.69      26.97
C      -1.81       6.80      26.12
C      -1.58       6.60      24.72
C      -1.50       2.86      24.55
C      -1.49       7.67      23.80
C      -0.85       6.88      19.47
C      -2.24       8.04      26.67
C      -1.06       3.43      27.51
C      18.67       2.31      20.25
C      -3.09       9.19      28.74
C      -3.48       9.83      31.02
C      -4.11      11.02      30.61
C      -3.72      10.40      28.31
C      -4.03      10.75      26.98
C      -2.22      13.78       5.07
C      -1.48      13.80       7.35
C      -0.14      13.75       6.94
C      -0.87      13.73       4.64
C      -0.40      13.82       3.31
C       1.32      10.74      16.90
C       0.96      10.08      19.19
C       0.25       8.94      18.78
C       0.59       9.59      16.48
C       0.44       9.15      15.15
C       0.10       1.35      28.14
C       0.44       0.65      30.41
C      -9.30      17.57      29.97
C       0.79       0.20      27.68
C      -9.41      17.93      26.33
C      10.26      14.94       4.47
C       9.48      15.00       6.74
C       8.14      14.98       6.30
C       8.92      14.92       4.02
C       8.51      14.89       2.66
C       6.51      17.42      16.31
C       6.95      18.07      18.58
C      18.03       1.17      18.13
C      17.60       0.52      15.85
C      17.78       0.89      14.49
H       3.42       8.73      30.82
H       4.70       8.22       4.32
H       1.33      10.00       1.47
H       1.07      10.25      34.69
H       7.00       6.62       0.44
H       6.60       6.64      33.68
H       4.96       7.15      30.32
H       7.62       7.31       2.40
H       2.55       8.78       4.83
H       1.37      11.05      32.67
H      15.12       8.38       7.15
H      14.04       7.52      16.15
H      -3.61       9.56      13.31
H      -3.26       9.65      11.02
H      11.50       6.33      12.28
H      11.72       6.66      10.01
H      12.98       7.83       6.65
H      11.79       5.45      14.23
H      15.60       9.11      16.67
H      -2.71       8.99       9.01
H      -1.47      16.49      18.98
H      -1.67      17.85      27.99
H      -1.52      14.05      25.14
H      -1.61      13.70      22.86
H       9.00       2.58      24.11
H       9.18       2.22      21.84
H       9.57       0.54      18.49
H       8.09       2.77      26.06
H      -1.08      15.71      28.50
H      -2.46      13.56      20.84
H       7.11       3.53      32.01
H       5.44       3.00      26.48
H       5.41       4.21      25.32
H       8.77       7.78       8.34
H       9.16       9.49       2.82
H      10.20       8.91       1.66
H      11.63       4.22      20.18
H      12.91       3.02      14.64
H      11.88       2.40      13.49
H       0.38      12.86      31.40
H       1.46      13.70      25.53
H       1.57      12.45      24.45
H      -0.65       8.95       7.74
H      -0.45       7.59       1.86
H      -1.60       8.12       0.78
H      -3.52      11.80      19.57
H      -4.80      12.30      13.69
H      -3.76      13.03      12.61
H      -7.08      14.79      30.82
H      -5.80      14.29       4.32
H      -9.17      16.06       1.47
H      11.44      16.31      34.69
H      -3.50      12.68       0.44
H      -3.90      12.70      33.68
H      -5.54      13.21      30.32
H      -2.88      13.37       2.40
H      -7.95      14.84       4.83
H      -9.13      17.11      32.67
H       4.62      14.44       7.15
H       3.54      13.58      16.15
H       6.76      15.62      13.31
H       7.11      15.71      11.02
H       1.00      12.39      12.28
H       1.22      12.73      10.01
H       2.48      13.90       6.65
H       1.29      11.51      14.23
H       5.10      15.17      16.67
H       7.66      15.05       9.01
H      -1.53       4.48      18.98
H      -1.74       5.84      27.99
H      19.28       2.04      25.14
H      19.19       1.69      22.86
H      -1.50       8.64      24.11
H      -1.32       8.28      21.84
H      -0.93       6.60      18.49
H      -2.41       8.83      26.06
H      -1.14       3.70      28.50
H      18.34       1.55      20.84
H      -3.39       9.59      32.01
H      -5.06       9.07      26.48
H      -5.09      10.27      25.32
H      -1.73      13.85       8.34
H      -1.34      15.56       2.82
H      -0.30      14.97       1.66
H       1.13      10.28      20.18
H       2.41       9.08      14.64
H       1.38       8.46      13.49
H       0.31       0.85      31.40
H       1.39       1.69      25.53
H       1.50       0.44      24.45
H       9.71      15.01       7.74
H       9.91      13.66       1.86
H       8.77      14.19       0.78
H       6.85      17.86      19.57
H      16.01       0.29      13.69
H      17.04       1.02      12.61
N       7.49       2.91      30.08
N       6.30       5.17      29.27
N       5.71       3.89      26.19
N       7.97       2.15      27.99
N       5.86       5.80      31.52
N       8.05       7.76       6.41
N      10.60       7.66       5.60
N       9.78       8.81       2.53
N       7.15       7.72       4.32
N      11.36       7.73       7.86
N      11.97       4.86      18.24
N      10.61       2.69      17.44
N      12.00       2.83      14.35
N      12.38       5.65      16.15
N      10.29       1.99      19.69
N       0.03      13.53      29.49
N       1.33      11.35      28.63
N       1.34      12.76      25.34
N      -0.34      14.28      27.28
N       1.79      10.58      30.75
N       0.10       8.92       5.82
N      -2.43       8.88       4.96
N      -1.22       8.16       1.67
N       0.94       8.86       3.61
N      -3.33       8.86       7.08
N      -3.93      11.16      17.65
N      -2.69      13.37      16.79
N      -3.92      12.68      13.51
N      -4.40      10.46      15.44
N      -2.26      14.16      18.91
N      -3.01       8.97      30.08
N      -4.20      11.23      29.27
N      -4.79       9.95      26.19
N      -2.53       8.21      27.99
N      -4.64      11.86      31.52
N      -2.45      13.82       6.41
N       0.10      13.72       5.60
N      -0.72      14.87       2.53
N      -3.35      13.79       4.32
N       0.86      13.80       7.86
N       1.47      10.92      18.24
N       0.11       8.75      17.44
N       1.50       8.89      14.35
N       1.88      11.71      16.15
N      -0.21       8.06      19.69
N      -0.04       1.52      29.49
N      -9.17      17.41      28.63
N       1.27       0.75      25.34
N      -0.41       2.27      27.28
N      -8.71      16.64      30.75
N      10.47      14.98       5.82
N       7.94      14.94       4.96
N       9.15      14.22       1.67
N      11.31      14.92       3.61
N       7.04      14.93       7.08
N       6.44      17.22      17.65
N      18.11       1.36      16.79
N      16.88       0.67      13.51
N       5.97      16.52      15.44
N      18.54       2.15      18.91
O       6.63       5.98      26.60
O      11.13       6.97       2.94
O       9.74       2.57      14.78
O       1.19      10.55      26.01
O      -3.05       9.40       2.34
O      -1.93      13.64      14.17
O      -3.87      12.04      26.60
O       0.63      13.03       2.94
O      -0.76       8.64      14.78
O      -9.31      16.62      26.01
O       7.32      15.46       2.34
O      18.87       1.63      14.17
