27

C       3.38       0.99       4.64
H       5.70      -6.94       5.64
H       3.56      -5.63       5.76
H       5.76      -1.99       5.09
H       7.88      -3.30       5.00
H       3.03      -2.06       3.12
H       3.07       0.41       2.59
H       3.65       1.27       6.76
H       3.61      -1.18       7.27
O       3.31      -3.10       5.50
O       8.18      -7.23       5.35
O       9.31      -5.31       5.28
O       3.66       3.25       5.29
O       3.22       2.77       3.11
C       6.92      -5.20       5.31
C       5.70      -5.86       5.53
C       3.32      -1.73       5.22
C       4.51      -5.14       5.60
C       3.19       0.05       3.61
C       4.54      -3.74       5.43
C       3.51       0.54       5.97
C       3.48      -0.82       6.26
C       3.43       2.45       4.32
C       6.93      -3.81       5.16
C       8.21      -5.94       5.30
C       5.74      -3.07       5.21
C       3.16      -1.31       3.89
