27

C      -0.47       6.29       2.15
C      -0.45       7.68       1.93
C      -1.63       8.41       1.87
C      -2.86       7.75       2.03
C      -2.91       6.37       2.25
C      -1.71       5.65       2.31
C       0.77       5.48       2.16
C      -5.21       7.91       2.25
C      -5.65       7.86       3.57
C      -6.85       7.21       3.85
C      -7.60       6.62       2.82
C      -7.14       6.70       1.50
C      -5.94       7.35       1.20
C      -8.87       5.91       3.14
H      -7.73       6.25       0.70
H       0.51       8.18       1.82
H      -1.63       9.48       1.70
O      -3.99       8.55       1.96
H      -1.72       4.58       2.47
O       1.91       6.10       2.12
O       0.71       4.22       2.19
O      -9.25       5.94       4.36
H      -5.56       7.40       0.19
H      -3.86       5.86       2.38
H      -5.05       8.32       4.35
H      -7.22       7.15       4.87
O      -9.48       5.33       2.18
