20

H       1.43       1.44       8.65
H       0.82      -0.32      12.88
C       3.63       0.37       9.34
C       2.37       0.47      10.14
C       1.31       1.08       9.50
C       0.05       1.15      10.11
C      -1.10       1.71       9.29
C      -1.38       0.74      12.20
C      -0.13       0.65      11.39
C       0.94       0.04      12.03
C       2.20      -0.04      11.43
C       3.35      -0.59      12.24
O      -2.27       1.48       9.69
O      -0.88       2.29       8.22
O       4.30       1.41       9.14
O       3.84      -0.75       8.80
O       4.52      -0.36      11.85
O       3.13      -1.18      13.31
O      -2.06      -0.29      12.40
O      -1.59       1.87      12.73
