46

La       9.54      16.51       6.56
O       7.47      15.81       7.86
La      13.33      15.54       5.16
O       5.90      17.12       8.72
O       3.64      15.68       7.22
C      15.71      16.29       2.77
O       1.53      15.33       7.84
O       2.11      13.19       3.80
O       7.46      15.75       4.87
O       9.55      15.80       4.06
La       5.66      16.64       6.25
La       1.87      15.23       5.28
C      15.97      17.91       6.10
O      11.79      17.47       5.85
O      12.89      17.67       3.94
O       9.09      18.50       5.05
O       7.30      18.37       6.35
C      10.51      17.13       9.20
C      10.84      17.22      10.65
C      14.57      12.89       5.42
C      12.25      18.23       4.89
C      15.08      11.52       5.67
C      12.01      19.70       4.96
C      10.40      13.64       6.24
C       8.03      19.02       5.50
O      10.97      16.12       8.54
O       9.76      17.99       8.60
O      15.14      13.93       5.98
O      13.56      13.07       4.67
O      11.31      14.57       6.11
O       9.20      13.94       6.46
C       2.85      12.59       4.66
C       3.19      11.13       4.57
O       4.13      15.94       4.33
O       5.22      17.86       4.12
C       6.90      16.37       8.90
C       7.41      16.12      10.28
O       1.43      16.75       3.30
O      14.98      15.43       3.43
O      15.13      16.92       6.04
O       1.88      17.73       5.98
C       2.73      15.55       8.15
C       4.35      16.83       2.10
C       4.59      16.91       3.56
O       3.30      13.25       5.68
C       8.30      15.69       3.88
