18

O       4.58       7.30      12.91
O       5.23       5.79      14.35
O       3.75      11.36      15.68
O       5.93       6.42      16.76
H       3.81      11.87      16.32
H       5.85       5.92      16.11
H       4.04       9.46      14.11
H       5.93       8.43      18.22
C       5.03       9.93      17.18
C       4.39      10.20      15.95
C       4.38       9.25      14.95
C       4.88       7.98      15.19
C       5.42       7.66      16.44
C       5.53       8.63      17.41
C       5.22      11.00      18.20
C       4.87       6.98      14.09
O       4.53      12.04      18.10
O       6.09      10.82      19.10
