16

O      12.10      13.78       9.62
O       8.53       9.30      13.54
O      11.45      15.50      10.92
O       8.21      10.83      15.09
H      11.30      11.65      10.47
H      10.17      10.12      11.82
H       8.78      13.16      14.11
H       9.85      14.68      12.71
C      11.46      14.29      10.60
C      10.69      13.32      11.46
C      10.78      11.96      11.21
C      10.12      11.05      12.01
C       9.37      11.49      13.10
C       8.67      10.48      13.97
C       9.28      12.85      13.36
C       9.93      13.75      12.54
