16

O      17.44       7.72      11.21
O      16.79       6.01       9.91
C      16.80       7.22      10.23
C      16.04       8.19       9.37
C      16.12       9.55       9.62
C      15.46      10.46       8.82
C      14.71      10.02       7.73
C      14.01      11.02       6.86
C      14.63       8.66       7.47
C      15.27       7.75       8.29
O      13.56      10.67       5.74
O      13.88      12.21       7.29
H      16.64       9.86      10.36
H      15.52      11.39       9.01
H      14.13       8.35       6.72
H      15.20       6.82       8.12
