30

O       7.20       5.62       9.36
O       8.99       5.93      10.74
O       7.19       9.25       5.65
O       9.01       8.99       4.31
H      12.85       9.36       6.50
H      12.82       5.57       8.56
H      10.96       6.47       9.45
H      10.97       8.48       5.63
H      16.55       7.41       7.48
H       7.25       7.47       7.52
C      15.46       9.53       6.09
C      14.76       8.47       6.87
C      13.36       8.51       6.93
C      15.44       5.32       8.89
C      14.75       6.41       8.14
C      13.35       6.41       8.12
C       8.35       6.09       9.64
C       9.05       6.86       8.57
C      10.45       6.90       8.59
C       8.36       8.82       5.40
C       9.05       8.09       6.49
C      10.45       8.06       6.48
C      15.46       7.43       7.49
C      12.64       7.47       7.54
C       8.34       7.47       7.53
C      11.17       7.48       7.54
O      16.62       9.26       5.65
O      14.82      10.63       5.91
O      16.61       5.57       9.30
O      14.76       4.25       9.10
