30

H       3.89       6.50      13.02
H       3.91       8.54      16.82
H       2.01       9.39      15.98
H       2.04       5.61      13.88
H       7.61       7.43      14.95
H      -1.69       7.43      14.99
C       6.50       6.05      12.84
C       5.81       6.84      13.90
C       4.41       6.92      13.87
C       6.53       8.83      17.06
C       5.82       8.10      15.97
C       4.42       8.09      15.97
C      -0.59       9.55      16.38
C       0.10       8.49      15.59
C       1.50       8.54      15.53
C      -0.58       5.35      13.59
C       0.12       6.44      14.33
C       1.52       6.45      14.34
C       6.53       7.45      14.94
C       3.70       7.51      14.92
C      -0.60       7.45      14.97
C       2.23       7.50      14.92
O       7.67       5.63      13.09
O       5.83       5.83      11.76
O       7.70       9.26      16.81
O       5.88       9.00      18.15
O      -1.72       9.25      16.87
O       0.03      10.66      16.54
O      -1.74       5.61      13.15
O       0.06       4.25      13.42
