28

Sr       6.55      12.07       3.73
Sr       2.74      19.33       5.64
O      10.67       7.06       6.31
O      10.01       8.91       5.18
Zn       6.17      15.36       5.95
Zn       9.97       8.08       3.38
C       6.54      15.56       3.08
C       5.34      17.66       7.56
C       8.53      13.70       5.91
C       3.86      13.56       5.40
C       9.14      10.40       1.79
C      12.34       6.43       3.44
C       7.67       6.29       3.94
C      10.35       8.30       6.25
O       6.21      16.18       4.15
O       6.84      14.33       3.01
O       4.48      18.02       6.68
O       6.09      16.63       7.46
O       8.04      14.80       6.32
O       7.85      12.68       5.58
O       4.49      14.36       6.18
O       4.39      12.78       4.56
O       8.27      10.76       2.65
O       9.91       9.38       1.90
O      11.84       7.53       2.99
O      11.66       5.42       3.80
O       8.30       7.07       3.13
O       8.20       5.53       4.81
