12

Zn       4.66       4.05       6.23
C       5.99       1.38       6.11
C       5.90       3.93       3.54
H       2.24       5.15       6.69
N       1.83       3.55       5.72
N       2.65       4.25       6.43
O       5.17       5.94       6.16
O       5.26       3.95       8.11
O       4.91       2.09       6.21
O       4.83       4.07       4.27
C       6.36       6.42       6.04
C       6.46       4.00       8.60
