468

C       9.85      43.35      17.35
C       9.74      41.45      15.91
C       9.86      41.16      18.28
C       9.58      36.65      29.47
C       9.77      34.45      28.54
C       9.68      36.36      27.09
C       0.01      40.33      19.45
C       9.88      38.87      21.93
C       0.75      40.06      21.78
C       0.75      40.78      20.57
C       9.80      38.22      23.20
C       9.69      36.96      25.79
C       9.56      38.37      25.64
C       9.61      38.98      24.38
C       9.86      44.74      17.64
C       1.14      45.38      18.13
C       1.04      46.66      18.73
C       9.68      47.31      18.91
C       8.53      46.66      18.40
C       8.62      45.40      17.78
C       9.58      39.85      32.33
C       0.56      38.74      32.48
C       0.51      37.63      31.60
C       9.49      37.61      30.52
C       8.61      38.71      30.38
C       8.64      39.80      31.27
C       9.69      40.83      14.61
C       0.34      41.42      13.43
C       0.34      40.70      12.20
C       9.70      39.39      12.08
C       9.13      38.84      13.26
C       9.13      39.53      14.48
C       9.76      38.63      10.86
C       9.55      39.21       9.58
C       0.34      26.49      29.93
C       0.34      27.91      29.92
C       9.70      28.67      28.84
C       9.13      27.93      27.78
C       9.76      30.11      28.80
C       9.56      30.92      29.95
C       9.58      32.34      29.88
C       9.82      33.01      28.65
C       0.16      32.20      27.52
C       0.14      30.79      27.59
C       9.18      39.11      19.56
C       9.18      38.40      20.79
C       0.01      36.81      23.34
C       9.85      36.20      24.61
C       9.85      22.12      29.63
C       9.74      24.33      28.72
C       9.77      36.23       7.23
C       9.58      38.45       8.39
C       9.82      37.05       8.42
C       0.16      36.47       9.69
C       0.14      37.24      10.87
C       9.69      25.76      28.83
C       9.13      26.52      27.77
C       0.50      37.30       2.94
C       9.85      22.10       5.11
C       9.74      21.79       7.48
C       9.86      24.00       6.54
C       9.86      22.41      27.27
C       9.85     -14.94      34.69
C       9.74     -13.05      36.14
C       9.86     -12.75      33.76
C       9.85       6.31      46.93
C       9.74       6.61      44.56
C       9.86       4.41      45.50
C       9.85       6.28      22.41
C       9.74       4.08      23.32
C       9.86       5.99      24.77
C       9.58      13.42      34.26
C       9.77      11.52      35.71
C       9.68      11.22      33.32
C       9.58      -7.53      47.18
C       9.77      -7.83      44.81
C       9.68      -5.62      45.74
C       9.59      -8.25      22.58
C       9.77      -6.05      23.50
C       9.68      -7.96      24.95
C       9.59      14.99      17.78
C       9.77      16.89      16.34
C       9.68      17.19      18.72
C       9.58      35.93       4.86
C       9.68      34.02       6.30
C       9.69      20.97       8.67
C       0.34      19.66       8.75
C       0.34      18.95       9.98
C       9.70      19.51      11.18
C       9.13      20.80      11.07
C       9.13      21.51       9.85
C       9.76      18.83      12.45
C       9.56      17.43      12.58
C       9.58      16.78      13.84
C       9.82      17.51      15.04
C       0.17      18.90      14.90
C       0.14      19.54      13.64
C       9.69     -12.43      37.44
C       0.34     -13.02      38.62
C       0.34     -12.30      39.85
C       9.70     -10.99      39.96
C       9.13     -10.44      38.79
C       9.13     -11.13      37.56
C       9.76     -10.23      41.19
C       9.55     -10.81      42.46
C       9.58     -10.04      43.65
C       9.82      -8.65      43.63
C       0.16      -8.07      42.35
C       0.14      -8.84      41.17
C       9.69       7.43      43.38
C       0.34       8.74      43.30
C       0.34       9.45      42.06
C       9.70       8.89      40.87
C       9.13       7.60      40.98
C       9.13       6.89      42.19
C       9.76       9.57      39.59
C       9.56      10.97      39.46
C       9.58      11.62      38.20
C       9.81      10.90      37.01
C       0.16       9.50      37.14
C       0.14       8.86      38.40
C       9.69       2.64      23.21
C       0.35       1.91      22.11
C       0.34       0.49      22.12
C       9.70      -0.26      23.20
C       9.13       0.47      24.26
C       9.13       1.88      24.27
C       9.76      -1.71      23.24
C       9.56      -2.52      22.10
C       9.58      -3.93      22.17
C       9.82      -4.61      23.39
C       0.17      -3.80      24.53
C       0.14      -2.39      24.46
C       0.01      25.42       6.68
C       9.18      26.13       7.68
C       9.18      27.55       7.68
C       0.00      28.29       6.71
C       0.75      27.57       5.75
C       0.75      26.17       5.73
C       9.80      29.72       6.63
C       0.02      30.55       7.78
C       9.85      31.95       7.68
C       9.69      32.60       6.43
C       9.56      31.76       5.29
C       9.62      30.36       5.39
C       0.02      21.82      25.98
C       9.18      22.33      24.86
C       9.19      21.62      23.63
C       0.01      20.41      23.47
C       0.76      19.94      24.57
C       0.76      20.63      25.80
C       9.81      19.63      22.27
C       0.02      20.21      20.98
C       9.86      19.42      19.82
C       9.70      18.01      19.89
C       9.57      17.44      21.18
C       9.62      18.23      22.34
C       0.02     -11.93      32.60
C       9.18     -10.70      32.48
C       9.19      -9.99      31.25
C       0.00     -10.47      30.12
C       0.75     -11.66      30.27
C       0.75     -12.37      31.47
C       9.81      -9.81      28.84
C       0.02      -8.41      28.71
C       9.86      -7.79      27.43
C       9.70      -8.56      26.25
C       9.57      -9.96      26.40
C       9.62     -10.57      27.67
C       0.01       2.98      45.36
C       9.18       2.27      44.36
C       9.18       0.85      44.36
C       0.00       0.11      45.34
C       0.75       0.83      46.29
C       0.75       2.23      46.31
C       9.81      -1.32      45.41
C       0.02      -2.14      44.26
C       9.86      -3.55      44.36
C       9.69      -4.19      45.61
C       9.57      -3.36      46.75
C       9.62      -1.96      46.65
C       0.01       6.58      26.07
C       9.18       6.07      27.18
C       9.18       6.78      28.41
C       9.89       8.00      28.57
C       0.75       8.47      27.47
C       0.75       7.78      26.24
C       9.80       8.78      29.77
C       0.01       8.19      31.06
C       9.85       8.98      32.23
C       9.69      10.39      32.16
C       9.56      10.96      30.87
C       9.62      10.18      29.70
C       9.58      48.50      19.71
C       0.56     -10.34      19.56
C       0.50      -9.23      20.44
C       9.49      -9.21      21.53
C       8.61     -10.32      21.67
C       8.64     -11.40      20.78
C       9.85      21.65       3.76
C       1.13      21.74       2.97
C       1.04      21.61       1.55
C       9.68      21.46       0.90
C       8.53      21.36       1.72
C       8.61      21.45       3.12
C       9.57      -8.41      51.39
C       0.54      -9.11      50.50
C       0.49      -8.90      49.10
C       9.49      -7.95      48.54
C       8.62      -7.27      49.43
C       8.65      -7.51      50.82
C       9.85      21.18      30.69
C       1.14      20.43      31.00
C       1.04      19.27      31.82
C       9.68      18.79      32.29
C       8.53      19.56      31.98
C       8.62      20.73      31.20
C       9.58      17.50      32.92
C       0.56      17.08      33.96
C       0.50      15.76      34.48
C       9.49      14.81      33.95
C       8.61      15.24      32.92
C       8.64      16.55      32.43
C       9.86     -16.33      34.40
C       1.14     -16.97      33.90
C       1.05     -18.26      33.30
C       9.69     -18.91      33.13
C       8.54     -18.27      33.65
C       8.62     -17.01      34.28
C       9.85       6.75      48.28
C       1.14       6.66      49.08
C       1.04       6.78      50.49
C       9.68       6.94      51.14
C       8.53       7.04      50.33
C       8.61       6.95      48.92
C       9.57      36.81       0.65
C       0.55      37.50       1.54
C       9.49      36.36       3.50
C       8.61      35.68       2.62
C       8.65      35.91       1.23
C       9.85       7.22      21.35
C       1.13       7.96      21.02
C       1.04       9.12      20.21
C       9.68       9.61      19.75
C       8.53       8.85      20.07
C       8.61       7.68      20.85
C       9.57      10.90      19.13
C       0.55      11.32      18.08
C       0.50      12.64      17.56
C       9.49      13.60      18.10
C       8.62      13.17      19.13
C       8.65      11.85      19.62
H       9.39      32.87      30.73
H       1.29      40.43      22.56
H       1.30      41.64      20.53
H       9.43      38.97      26.46
H       9.50      39.99      24.33
H       7.61      47.08      18.53
H       7.75      44.93      17.51
H       1.89      47.08      19.12
H       1.27      38.75      33.22
H       1.20      36.89      31.71
H       7.95      38.75      29.60
H       8.02      40.59      31.09
H       8.70      37.91      13.24
H       8.71      39.07      15.29
H       9.34      40.21       9.50
H       0.78      41.13      11.38
H       8.70      28.41      26.99
H       9.34      30.49      30.85
H       0.36      32.62      26.60
H       0.34      30.27      26.73
H       0.78      28.40      30.70
H       0.17      36.22      22.52
H       0.07      35.18      24.66
H       8.61      37.55      20.88
H       9.39      38.92       7.50
H       0.36      35.47       9.78
H       0.34      36.76      11.76
H       8.71      26.05      26.97
H       7.75      21.20      30.94
H       1.18      37.77       3.54
H       8.70      21.25      11.88
H       8.71      22.44       9.85
H       9.34      16.86      11.75
H       9.39      15.78      13.87
H       0.36      19.48      15.72
H       0.34      20.54      13.62
H       0.78      18.03      10.02
H       8.70      -9.51      38.81
H       8.71     -10.67      36.76
H       9.34     -11.81      42.54
H       9.39     -10.52      44.54
H       0.36      -7.07      42.26
H       0.34      -8.36      40.29
H       0.78     -12.73      40.66
H       8.70       7.15      40.16
H       8.70       5.96      42.19
H       9.34      11.54      40.29
H       9.39      12.62      38.17
H       0.35       8.92      36.32
H       0.34       7.86      38.42
H       0.78      10.37      42.02
H       8.70      -0.01      25.06
H       8.71       2.35      25.08
H       9.34      -2.09      21.20
H       9.39      -4.47      21.32
H       0.36      -4.22      25.44
H       0.34      -1.86      25.31
H       0.78      -0.00      21.34
H       1.30      28.06       5.04
H       1.30      25.70       5.01
H       0.17      30.13       8.70
H       0.07      32.50       8.54
H       9.43      32.17       4.36
H       9.50      29.82       4.53
H       8.61      28.04       8.37
H       1.31      19.08      24.50
H       1.31      20.24      26.57
H       0.17      21.22      20.88
H       0.07      19.88      18.91
H       9.44      16.43      21.30
H       9.51      17.76      23.24
H       8.61      21.97      22.86
H       1.30     -12.03      29.48
H       1.30     -13.23      31.52
H       0.17      -7.82      29.53
H       0.07      -6.78      27.38
H       9.43     -10.57      25.59
H       9.51     -11.59      27.71
H       8.62      -9.15      31.17
H       1.30       0.34      47.00
H       1.30       2.70      47.03
H       0.17      -1.73      43.34
H       0.07      -4.10      43.51
H       9.44      -3.76      47.69
H       9.51      -1.41      47.51
H       8.61       0.36      43.67
H       1.30       9.33      27.54
H       1.30       8.17      25.47
H       0.16       7.19      31.16
H       0.07       8.52      33.13
H       9.43      11.97      30.75
H       9.50      10.64      28.80
H       8.61       6.43      29.18
H       1.26     -10.34      18.81
H       1.19      -8.48      20.33
H       7.96     -10.36      22.46
H       8.03      47.76      20.97
H       7.60      21.27       1.29
H       7.74      21.46       3.66
H       1.24      -9.76      50.87
H       1.17      -9.38      48.51
H       7.97      -6.56      49.07
H       8.03      -6.94      51.41
H       1.88      21.74       0.99
H       7.61      19.24      32.29
H       1.26      17.72      34.33
H       1.19      15.48      35.18
H       7.96      14.58      32.49
H       8.02      16.79      31.65
H       1.89      18.72      31.98
H       7.62     -18.69      33.54
H       7.75     -16.54      34.56
H       1.89     -18.67      32.90
H       7.60       7.14      50.75
H       7.74       6.95      48.38
H       1.25      38.15       1.17
H       7.97      34.97       2.97
H       8.03      35.35       0.63
H       1.89       6.65      51.05
H       7.60       9.18      19.78
H       7.74       7.22      21.13
H       1.24      10.67      17.70
H       1.17      12.91      16.85
H       7.97      13.83      19.56
H       8.04      11.62      20.41
H       1.89       9.66      20.04
N       9.77      42.80      16.10
N       9.78      40.66      17.02
N       0.01      42.51      18.42
N       9.69      35.29      29.62
N       9.76      35.02      27.30
N       9.58      37.14      28.20
N       2.38      44.70      18.04
N       0.94      42.70      13.50
N       0.94      25.79      31.01
N       8.40      38.64      18.47
N       9.77      23.48      29.79
N       9.78      23.76      27.48
N       9.69      36.74       5.96
N       9.77      34.87       7.35
N       9.77      21.28       6.21
N       9.78      23.15       7.61
N       0.01      23.44       5.31
N       0.01      21.62      28.38
N       9.77     -14.40      35.94
N       9.78     -12.26      35.02
N       0.01     -14.10      33.63
N       9.77       7.12      45.84
N       9.78       5.25      44.44
N       0.01       4.97      46.73
N       9.77       4.93      22.25
N       9.78       4.65      24.57
N       0.01       6.78      23.66
N       9.69      12.87      35.51
N       9.77      10.73      34.59
N       9.59      12.56      33.21
N       9.69      -8.34      46.09
N       9.77      -6.47      44.69
N       9.59      -6.19      46.97
N       9.69      -6.89      22.43
N       9.77      -6.62      24.74
N       9.59      -8.73      23.85
N       9.69      15.53      16.53
N       9.77      17.67      17.45
N       9.59      15.84      18.84
N       9.59      34.59       5.07
N       0.94      19.08       7.60
N       0.94     -14.30      38.55
N       0.94       9.33      44.44
N       0.94       2.62      21.03
N       8.40      25.42       8.63
N       8.40      23.50      25.01
N       8.40     -10.24      33.57
N       8.40       2.99      43.42
N       8.40       4.90      27.04
N       2.38      21.99       3.60
N       2.38      20.85      30.46
N       2.38     -16.28      33.97
N       2.38       6.40      48.44
N       2.38       7.53      21.56
O       0.36      43.52      12.74
O       2.87      44.49      19.18
O       3.21      45.35      17.36
O       2.16      42.67      13.20
O       2.16      26.06      31.13
O       0.35      26.03      32.10
O       7.18      38.59      18.76
O       8.78      37.51      18.09
O       3.21      21.11      31.36
O       2.16      18.84       7.78
O       0.36      18.01       7.27
O       2.16     -14.27      38.85
O       0.35     -15.12      39.31
O       2.16       9.56      44.27
O       0.36      10.39      44.77
O       2.16       2.34      20.91
O       0.36       2.37      19.95
O       7.18      25.69       8.52
O       8.77      25.65       9.80
O       7.18      23.28      24.82
O       8.77      24.40      24.21
O       7.18     -10.19      33.28
O       8.78      -9.10      33.95
O       7.18       2.71      43.52
O       8.77       2.75      42.24
O       7.17       5.12      27.22
O       8.77       4.00      27.83
O       2.88      23.07       3.22
O       3.20      21.06       3.38
O       2.86      19.97      29.70
O       2.85     -16.07      32.83
O       3.22     -16.93      34.65
O       2.87       5.31      48.83
O       3.20       7.32      48.67
O       2.88       8.41      22.30
O       3.20       7.26      20.64
