312

Cu       2.21      17.19      11.00
Cu       2.16       7.59      22.01
Cu       6.57      14.78      11.04
Cu       6.54       5.17       0.03
Cu       6.58      11.64       0.01
Cu       6.53       2.04      11.02
Cu       2.20      14.06      21.99
Cu       2.17       4.45      10.98
H       0.99       0.79      10.33
H       1.67       2.60       8.74
H       3.28      17.27       8.18
H       4.12       1.84       5.59
H       3.83       2.91       3.76
H       4.47       4.68       2.13
H       7.85       2.61       0.96
H       7.33       0.71       2.49
H       5.97      18.11       2.99
H       6.25      14.15       1.90
H       5.09      12.36       3.23
H       3.92      15.20       6.03
H       3.30       0.87      11.63
H       2.82       2.61      13.33
H       1.01      17.34      13.78
H       0.27       1.86      16.45
H       0.52       2.93      18.31
H       8.54       4.71      19.93
H       5.17       2.58      20.99
H       5.77       0.67      19.50
H       7.16      18.11      19.03
H       6.96      14.18      20.17
H       8.07      12.39      18.81
H       0.44      15.21      15.97
H       3.38      10.40      21.34
H       2.70      12.22      19.75
H       1.09       7.67      19.19
H       0.25      11.45      16.60
H       0.54      12.52      14.77
H       8.64      14.29      13.14
H       5.26      12.22      11.97
H       5.77      10.32      13.50
H       7.14       8.50      14.00
H       6.85       4.55      12.91
H       8.02       2.76      14.24
H       0.45       5.60      17.04
H       1.06      10.47       0.63
H       1.55      12.21       2.32
H       3.36       7.72       2.78
H       4.10      11.46       5.44
H       3.85      12.54       7.30
H       4.57      14.31       8.92
H       7.94      12.18       9.98
H       7.34      10.27       8.49
H       5.94       8.50       8.02
H       6.15       4.57       9.16
H       5.04       2.77       7.81
H       3.93       5.59       4.96
H       5.36       8.83       0.67
H       6.04       7.01       2.27
H       7.65      11.56       2.83
H       8.49       7.78       5.42
H       8.20       6.71       7.25
H       0.10       4.94       8.87
H       3.48       7.01      10.05
H       2.96       8.91       8.52
H       1.60      10.72       8.01
H       1.88      14.68       9.11
H       0.72      16.47       7.78
H       8.29      13.63       4.98
H       7.67       8.76      21.39
H       7.19       7.02      19.70
H       5.38      11.51      19.24
H       4.64       7.77      16.58
H       4.89       6.69      14.72
H       4.17       4.92      13.10
H       0.80       7.05      12.03
H       1.40       8.95      13.53
H       2.80      10.73      14.00
H       2.59      14.66      12.86
H       3.70      16.46      14.21
H       4.81      13.63      17.06
H       7.74      18.44      11.68
H       7.07      16.63      13.27
H       5.46       1.96      13.84
H       4.62      17.39      16.42
H       4.91      16.32      18.26
H       4.27      14.55      19.88
H       0.89      16.62      21.06
H       1.41      18.52      19.53
H       2.77       1.12      19.02
H       2.49       5.08      20.12
H       3.65       6.87      18.78
H       4.82       4.03      15.98
H       5.43      18.36      10.38
H       5.92      16.62       8.69
H       7.73       1.89       8.23
H       8.46      17.37       5.57
H       8.22      16.29       3.71
H       0.20      14.52       2.09
H       3.57      16.65       1.02
H       2.97      18.55       2.52
H       1.57       1.12       2.99
H       1.78       5.05       1.85
H       0.67       6.84       3.20
H       8.30       4.02       6.05
C       3.88      16.40      10.96
C       4.99      15.80      10.99
C       1.64       0.57       9.48
C       1.98       1.57       8.57
C       3.12       0.05       7.31
C       2.86      18.27       8.27
C       3.90      18.97       6.09
C       4.36       0.82       5.30
C       5.12       0.53       4.16
C       5.53       1.63       3.26
C       4.74       2.79       3.17
C       5.09       3.79       2.27
C       6.96       2.62       1.59
C       6.67       1.56       2.44
C       5.40      18.41       3.87
C       4.86      17.40       4.70
C       5.01      15.97       4.33
C       5.72      14.40       2.82
C       5.09      13.40       3.57
C       4.43      14.96       5.10
C       8.19      15.78      10.99
C       2.69       0.63      12.50
C       2.43       1.60      13.47
C       1.25       0.08      14.70
C       1.45      18.33      13.71
C       0.47      18.99      15.93
C       0.03       0.83      16.73
C       8.00       0.55      17.87
C       7.57       1.64      18.76
C       8.33       2.81      18.87
C       7.94       3.81      19.76
C       6.07       2.61      20.39
C       6.41       1.55      19.55
C       7.72      18.42      18.14
C       8.25      17.42      17.31
C       8.11      15.99      17.69
C       7.44      14.42      19.22
C       8.05      13.42      18.46
C       8.68      14.97      16.91
C       0.49       6.80      21.97
C       8.12       6.20      22.00
C       2.73      10.19      20.49
C       2.39      11.19      19.58
C       1.25       9.66      18.32
C       1.51       8.67      19.28
C       0.47       9.37      17.10
C       0.01      10.43      16.31
C       7.99      10.15      15.17
C       7.58      11.25      14.27
C       8.37      12.41      14.17
C       8.02      13.40      13.27
C       6.15      12.23      12.60
C       6.44      11.18      13.45
C       7.71       8.81      14.88
C       8.24       7.80      15.70
C       8.10       6.37      15.33
C       7.39       4.80      13.83
C       8.02       3.80      14.58
C       8.68       5.36      16.11
C       4.92       6.18      22.00
C       1.68      10.23       1.49
C       1.93      11.20       2.46
C       3.12       9.68       3.69
C       2.92       8.71       2.70
C       3.90       9.37       4.92
C       4.34      10.43       5.72
C       5.11      10.15       6.86
C       5.54      11.24       7.75
C       4.77      12.41       7.87
C       5.17      13.41       8.75
C       7.04      12.21       9.38
C       6.70      11.15       8.54
C       5.39       8.80       7.14
C       4.85       7.80       6.31
C       4.99       6.38       6.68
C       5.67       4.81       8.21
C       5.06       3.80       7.45
C       4.43       5.35       5.90
C       8.25      12.43       0.05
C       0.62      13.03       0.02
C       6.01       9.04       1.52
C       6.35       8.04       2.44
C       7.49       9.57       3.70
C       7.23      10.56       2.74
C       8.27       9.86       4.92
C       8.73       8.80       5.71
C       0.75       9.08       6.85
C       1.16       7.98       7.75
C       0.37       6.82       7.84
C       0.72       5.83       8.74
C       2.59       7.00       9.42
C       2.30       8.05       8.56
C       1.03      10.42       7.13
C       0.49      11.43       6.31
C       0.64      12.85       6.68
C       1.35      14.43       8.19
C       0.72      15.43       7.44
C       0.06      13.87       5.91
C       3.82      13.05       0.02
C       7.06       9.00      20.52
C       6.80       8.03      19.55
C       5.62       9.55      18.32
C       5.82      10.51      19.32
C       4.84       9.85      17.10
C       4.40       8.79      16.30
C       3.63       9.08      15.16
C       3.20       7.99      14.26
C       3.97       6.82      14.15
C       3.57       5.82      13.27
C       1.70       7.02      12.64
C       2.04       8.08      13.48
C       3.35      10.43      14.88
C       3.89      11.42      15.71
C       3.74      12.85      15.34
C       3.07      14.42      13.81
C       3.68      15.43      14.56
C       4.31      13.88      16.12
C       4.86       2.83      11.06
C       3.75       3.43      11.03
C       7.10      18.66      12.53
C       6.76      17.65      13.44
C       5.62      19.18      14.71
C       5.88       0.96      13.75
C       4.84       0.26      15.93
C       4.38      18.41      16.72
C       3.62      18.69      17.86
C       3.21      17.60      18.76
C       4.00      16.44      18.85
C       3.65      15.44      19.75
C       1.78      16.61      20.43
C       2.07      17.67      19.57
C       3.34       0.82      18.14
C       3.88       1.83      17.32
C       3.73       3.25      17.69
C       3.02       4.83      19.20
C       3.65       5.83      18.45
C       4.31       4.27      16.92
C       0.55       3.45      11.03
C       6.05      18.60       9.52
C       6.30      17.63       8.55
C       7.49      19.15       7.31
C       7.29       0.90       8.31
C       8.27       0.24       6.09
C       8.71      18.39       5.29
C       0.74      18.68       4.15
C       1.17      17.59       3.26
C       0.40      16.42       3.14
C       0.80      15.42       2.26
C       2.67      16.62       1.63
C       2.33      17.68       2.47
C       1.02       0.81       3.87
C       0.48       1.81       4.70
C       0.63       3.24       4.33
C       1.30       4.81       2.80
C       0.69       5.81       3.56
C       0.06       4.26       5.11
N       2.12      18.54       9.36
N       2.71       1.32       7.49
N       4.13      17.67       5.79
N       5.68      15.68       3.19
N       4.46      13.67       4.73
N       6.18       3.71       1.47
N       0.40      16.47      11.10
N       2.16      18.61      12.60
N       1.71       1.34      14.57
N       0.24      17.69      16.21
N       7.46      15.71      18.84
N       8.65      13.68      17.29
N       6.82       3.72      20.51
N       2.25       8.94      20.36
N       1.65      10.93      18.49
N       0.24       8.07      16.80
N       7.42       6.08      14.20
N       8.64       4.07      15.74
N       6.93      13.33      12.48
N       3.97       6.85       0.09
N       2.21       8.99       1.59
N       2.65      10.94       3.56
N       4.13       8.08       5.20
N       5.64       6.09       7.83
N       4.46       4.07       6.28
N       6.29      13.32       9.50
N       6.49      10.29       1.65
N       7.08       8.29       3.52
N       8.50      11.16       5.22
N       1.31      13.14       7.82
N       0.09      15.16       6.28
N       1.81       5.90       9.53
N       4.77      12.37      21.92
N       6.53      10.23      20.43
N       6.08       8.29      18.46
N       4.61      11.15      16.81
N       3.09      13.14      14.19
N       4.28      15.16      15.74
N       2.45       5.91      12.52
N       6.62       0.69      12.66
N       6.02      17.91      14.53
N       4.61       1.56      16.23
N       3.06       3.54      18.83
N       4.28       5.56      17.29
N       2.56      15.51      20.54
N       8.34       2.76      10.91
N       6.58       0.62       9.42
N       7.02      17.89       7.45
N       8.50       1.53       5.81
N       1.28       3.52       3.18
N       0.09       5.55       4.73
N       1.92      15.51       1.51
