34

C       1.62      13.27       8.53
C       2.03      15.18       9.70
Cu       4.66      14.35       4.85
Cu       5.73      16.36       6.10
Cu       7.52      20.45       7.14
Cu       7.32      18.94       9.24
Cu       0.57      21.19       9.40
Cu       1.65      19.18       8.15
Cu       3.44      15.10       7.11
Cu       3.24      16.60       5.01
I       5.55      16.52       3.49
I       5.88      14.01       7.25
I       7.85      17.78       6.87
I       6.12      21.31       9.36
I       1.47      19.02      10.76
I       1.79      21.54       7.00
I       3.76      17.77       7.38
I       2.04      14.23       4.89
N       5.49      12.80       3.87
N       2.12      17.93       3.98
N       1.40      22.75      10.38
N       6.20      17.61      10.27
N       6.30      21.09       5.65
N       2.22      14.45       8.60
C       6.78      12.77       3.58
C       4.78      11.72       3.55
C       1.16      17.57       3.11
C       2.37      19.23       4.11
C       2.70      22.77      10.67
C       0.70      23.83      10.70
C       5.24      17.97      11.14
C       6.45      16.31      10.14
C       5.70      22.28       5.72
C       6.11      20.36       4.55
