41

Zn      12.81       6.07      10.11
Zn      11.07       4.51      12.34
Zn       8.45       2.87      13.42
O       8.81       3.75      15.15
O      10.61       4.87      14.34
O       9.66       1.29      13.11
O      11.49       2.54      12.57
O      10.61       6.53      12.21
O      11.51       7.58      10.41
H      12.29       6.00       7.17
H      13.32       6.95       5.09
O      14.12       6.30      11.56
O      13.04       4.81      12.90
H      15.44       8.29       5.31
H      16.43       8.62       7.60
H      15.27       7.59       9.57
C       9.78       4.60      15.24
C       5.76       2.42      14.53
C       4.67       1.73      15.06
C       4.63       0.34      14.94
C       5.68      -0.32      14.29
C       6.75       0.44      13.80
C      10.89       1.44      12.78
H       5.84       3.50      14.58
H       3.88       2.28      15.57
C      10.71       7.51      11.41
H       3.79      -0.23      15.35
H       5.69      -1.40      14.17
H       7.61      -0.02      13.31
C      13.98       5.62      12.64
C      13.20       6.59       7.21
C      13.79       7.11       6.06
C      14.96       7.85       6.19
C      15.52       8.03       7.45
C      14.88       7.47       8.56
N      13.74       6.76       8.43
N       6.78       1.78      13.91
C      12.38       3.49       9.61
O      11.63       4.46      10.14
O       8.98       4.01      11.77
C       7.93       4.81      11.77
