11

Zn      -2.58       8.93       4.47
C      -2.07       6.18       3.53
C      -3.12      11.67       3.53
C      -0.24       8.88       6.55
C      -4.94       8.98       6.54
O      -2.16       7.44       3.24
O      -3.02      10.41       3.24
N      -1.33      10.75       6.33
N      -1.13       9.53       5.77
N      -3.84       7.12       6.34
N      -4.03       8.34       5.77
