11

C       2.70       2.12       4.41
C       5.57       5.28       8.01
Zn       3.38       4.38       6.28
N       0.62       3.56       6.65
N       4.09       7.11       5.54
N       1.64       4.22       7.26
N       3.38       6.03       5.15
O       3.56       2.82       5.08
O       4.92       4.28       7.49
C       1.14       4.79       8.38
C       2.69       6.39       4.04
