11

Zn      -5.79       4.47      14.70
O      -4.25       4.72      13.50
C      -3.84       5.74      12.82
O      -5.29       3.01      15.89
N      -5.80       7.34      15.06
N      -8.20       3.01      13.95
N      -6.15       6.18      15.68
N      -7.37       4.01      13.56
C      -6.06       2.11      16.42
C      -6.83       6.51      16.80
C      -7.91       4.56      12.46
