18

C       2.14       2.30       5.30
H       5.69       1.48       3.93
H       1.40       1.05       3.70
H       3.16       3.51       6.76
C       3.68       0.35       2.45
C       4.70       1.70       4.31
C       2.28       1.46       4.19
C       0.78       2.61       5.81
C       5.77       3.10       6.08
C       3.56       1.18       3.69
C       4.55       2.51       5.44
C       3.27       2.84       5.92
O      -0.25       2.10       5.23
O       5.53       3.82       7.11
O       2.71      -0.41       2.16
O       0.64       3.36       6.84
O       6.90       2.84       5.57
O       4.78       0.52       1.81
