18

C      18.13      12.01      13.64
C      18.11      13.21      15.85
C      17.53      11.09      12.76
O      19.20      11.15      11.00
C      15.55      10.98      14.17
O      13.64      10.58      15.55
H      19.14      12.36      13.47
C      16.25      10.60      13.03
O      13.93       9.24      13.76
O      17.49      13.50      16.91
H      15.61      12.20      15.96
C      14.29      10.25      14.55
C      16.13      11.91      15.05
O      19.35      13.49      15.61
O      17.74       9.52      10.95
H      15.80       9.87      12.37
C      17.42      12.41      14.79
C      18.22      10.58      11.56
