18

C      11.86       9.46       6.86
O      15.33       8.04      11.71
O      16.26      12.20       7.13
O      17.28      11.48       8.91
O      10.97       8.59       7.15
H      12.16       8.14       9.22
H      13.92      11.19       6.71
C      15.05       9.90       9.66
C      12.90       9.70       7.90
C      15.02      10.70       8.52
O      11.95      10.09       5.76
O      13.19       7.56      11.67
H      15.90       9.97      10.32
C      13.94      10.61       7.63
C      14.03       8.98       9.91
C      16.21      11.50       8.17
C      14.17       8.13      11.11
C      12.94       8.88       9.04
