21

Co      17.60       6.42      19.00
Co      11.72       3.78      18.97
Co      14.63       5.09      19.72
C      11.97       6.57      19.09
C      13.43       2.97      17.42
O      15.63       6.18      18.13
O      17.07       7.76      17.62
O      15.40       6.24      21.24
O      18.15       4.61      18.79
O      17.42       7.16      20.72
O      16.19       3.78      19.62
O      13.69       4.04      18.09
O      12.24       2.47      17.57
O      13.90       3.93      21.24
O      11.17       5.59      18.79
O      11.86       3.06      20.71
O      13.11       6.44      19.62
C      16.40       6.97      21.51
C      17.33       3.64      19.09
C      15.89       7.26      17.47
C      12.88       3.23      21.51
