14

O       3.27       4.52       3.21
O       2.47       2.89       4.58
H       6.80       6.30       5.62
H       3.77       2.66       6.73
C       7.27       5.22       8.08
C       6.17       4.87       7.12
C       6.10       5.50       5.86
C       3.30       3.74       4.27
C       4.40       4.10       5.23
C       4.47       3.47       6.49
N       5.34       3.85       7.42
N       5.23       5.11       4.93
O       7.30       4.45       9.14
O       8.10       6.08       7.77
