34

C       8.38       2.43      36.39
C       8.30       3.81      36.63
C       8.15       4.67      35.55
C       8.08       4.14      34.24
C       7.97       4.91      33.05
C       7.89       6.46      31.48
C       7.95       7.76      30.82
C       8.06       8.98      31.49
C       8.19      10.16      30.75
C       8.25      10.07      29.36
C       7.99       7.77      29.42
C       7.90       4.34      31.77
C       7.93       2.92      31.59
C       7.86       2.28      30.34
C       7.88       0.90      30.28
C       7.95       0.17      31.47
C       8.03       2.11      32.76
C       8.13       2.72      34.08
N       8.29       1.91      35.16
N       8.03       0.76      32.67
N       7.85       5.31      30.81
N       7.94       6.27      32.85
N       8.15       8.89      28.71
H       8.05       6.99      33.60
H       8.50       1.72      37.20
H       8.36       4.19      37.64
H       8.09       5.74      35.70
H       8.07       9.02      32.58
H       8.25      11.12      31.25
H       8.38      10.95      28.73
H       7.92       6.84      28.86
H       7.79       2.89      29.43
H       7.82       0.38      29.32
H       7.94      -0.92      31.48
