34

H       4.41       9.12      48.58
H       4.42      16.20      45.10
C       4.81      11.96      41.79
C       4.83      13.36      41.72
H       4.90      11.34      40.90
H       4.94      13.86      40.76
C       4.70      14.10      42.88
C       4.58      13.43      44.12
C       4.47      16.64      47.92
C       4.48      14.06      45.39
C       4.54      17.94      47.37
H       4.31      11.63      48.75
C       4.62      18.82      49.61
C       4.48      16.52      49.32
H       4.43      15.54      49.78
N       4.48      15.39      45.75
C       4.37      11.13      47.78
N       4.68      11.30      42.95
C       4.61      19.03      48.23
C       4.42      11.91      46.61
N       4.49       9.88      45.29
H       4.51       8.08      46.29
C       4.42      13.34      46.60
N       4.39      14.20      47.66
C       4.58      12.00      44.11
C       4.49      11.24      45.35
N       4.56      17.58      50.14
C       4.42       9.75      47.69
C       4.48       9.16      46.41
H       4.68      15.18      42.86
H       4.56      18.08      46.30
H       4.67      20.04      47.83
H       4.68      19.64      50.33
C       4.43      15.42      47.13
