16

C       8.54      14.68       8.05
C       7.19      15.06       8.04
C       6.18      14.10       8.05
H       6.94      16.12       8.05
C       7.86      12.34       8.06
C       8.86      13.32       8.08
C       9.64      15.68       8.08
H       9.90      13.01       8.13
H       5.13      14.41       8.09
C       6.51      12.74       8.05
H       5.72      11.99       8.05
C       8.25      10.90       8.11
O       9.39      16.93       8.06
O      10.83      15.20       8.16
O       7.39      10.01       7.79
O       9.44      10.60       8.45
