16

O       4.22       8.87      34.06
O       2.78      10.61      34.16
O       6.22      15.80      33.79
O       4.17      15.21      34.45
C       5.07      11.13      34.05
C       6.42      10.74      34.04
C       7.43      11.71      34.05
C       7.10      13.07      34.05
C       5.75      13.46      34.06
C       4.74      12.49      34.08
C       3.96      10.12      34.08
C       5.36      14.91      34.11
H       6.67       9.69      34.05
H       8.47      11.40      34.09
H       7.89      13.81      34.05
H       3.70      12.79      34.13
