34

C       4.48       7.92      28.68
C       4.42       4.74      31.40
C       4.42       3.31      31.39
C       4.37       2.53      30.22
C       4.42       1.15      30.31
C       4.48       0.56      31.59
C       4.49       2.64      32.65
C       4.58       3.39      33.89
N       4.68       2.70      35.05
N       4.49       1.28      32.71
N       4.39       5.59      30.34
N       4.48       6.79      32.25
N       4.56       8.98      27.86
H       4.42       7.60      32.90
H       4.90       2.73      37.10
H       4.94       5.26      37.24
H       4.68       6.58      35.15
H       4.56       9.48      31.70
H       4.67      11.44      30.17
H       4.68      11.04      27.67
H       4.43       6.94      28.22
H       4.31       3.03      29.25
H       4.41       0.52      29.42
H       4.51      -0.52      31.72
C       4.81       3.36      36.21
C       4.83       4.76      36.28
C       4.70       5.49      35.12
C       4.58       4.82      33.88
C       4.48       5.46      32.61
C       4.43       6.82      30.87
C       4.47       8.04      30.08
C       4.54       9.33      30.63
C       4.61      10.43      29.77
C       4.62      10.22      28.39
