16

C       7.04       0.40      13.27
C       5.98       0.52      12.37
C       6.21       0.42      10.99
C       7.52       0.26      10.53
C       8.59       0.15      11.43
C       8.35       0.20      12.80
C       6.74       0.40      14.73
C       5.05       0.43      10.05
O       5.64       0.93      15.11
O       7.55      -0.20      15.51
O       3.89       0.34      10.56
O       5.25       0.51       8.79
H       4.97       0.67      12.74
H       7.72       0.18       9.46
H       9.60      -0.01      11.05
H       9.16       0.08      13.52
