16

H      10.81       8.59      40.95
C      12.06       8.80      39.20
C      13.67       9.00      37.27
H      11.25       8.68      38.48
C      11.82       8.75      40.57
O      14.77       9.53      36.89
O      12.86       8.40      36.49
C      15.36       9.03      41.95
O      16.53       8.94      41.44
O      15.16       9.12      43.21
H      12.70       8.79      42.54
H      15.44       9.27      39.26
C      13.37       9.01      38.73
C      14.43       9.12      39.63
C      14.20       9.02      41.01
C      12.89       8.86      41.47
