34

H       2.38       7.60       6.90
H       1.90       2.73      11.10
H       1.86       5.26      11.24
H       2.12       6.58       9.14
H       2.24       9.48       5.70
H       2.13      11.44       4.17
H       2.12      11.04       1.67
H       2.37       6.94       2.22
H       2.49       3.03       3.25
H       2.40       0.52       3.42
H       2.30      -0.52       5.71
N       2.12       2.70       9.05
N       2.31       1.28       6.71
N       2.41       5.59       4.34
N       2.32       6.79       6.25
N       2.24       8.98       1.86
C       1.99       3.36      10.21
C       1.98       4.76      10.28
C       2.11       5.49       9.12
C       2.23       4.82       7.88
C       2.33       5.46       6.61
C       2.38       6.82       4.87
C       2.33       8.04       4.08
C       2.26       9.33       4.63
C       2.19      10.43       3.77
C       2.18      10.22       2.39
C       2.32       7.92       2.68
C       2.38       4.74       5.40
C       2.38       3.31       5.39
C       2.43       2.53       4.22
C       2.38       1.15       4.31
C       2.33       0.56       5.59
C       2.32       2.64       6.65
C       2.23       3.39       7.89
