20

Zn       5.99       7.83       9.31
Zn       5.75       7.83       6.58
C       6.77       7.83       3.79
C       4.44       7.83       3.88
C       4.97       7.83      12.10
C       7.70       9.72       7.80
C       7.70       5.94       7.80
C       7.30       7.83      12.01
C       4.04       9.72       8.09
C       4.04       5.94       8.09
N       6.11       7.83      11.37
N       5.63       7.83       4.51
O       4.54       6.35       9.19
O       7.45       6.42       8.95
O       4.54       9.31       9.19
O       7.20       6.35       6.69
O       7.45       9.24       8.95
O       4.29       9.24       6.93
O       7.20       9.31       6.69
O       4.29       6.42       6.93
