11

C       5.69       3.70       6.08
Zn       7.87       3.63       3.99
O       6.07       3.49       2.97
C       7.83       3.77       6.98
O       9.71       4.61       4.15
C      10.06       1.54       3.91
C       7.92       0.65       3.85
C       9.22       5.79       3.94
N       8.72       1.73       3.91
N       7.03       3.70       5.90
C       6.57       3.66       1.79
