46

C       9.98       0.41       0.41
C       9.68       0.11       1.77
C       9.67       1.11       2.77
C      10.00       2.43       2.42
C       0.26       2.77       1.10
C       0.23       1.76       0.11
C       9.96      14.71      14.71
C       0.18      13.35      15.01
C       0.20      12.35      14.01
C       9.94      12.70      12.69
C       9.63      14.03      12.35
C       9.67      15.02      13.36
C       8.89       1.11       6.88
C       8.92      15.30       8.97
C       8.88      14.02       6.97
C       8.92      15.19       6.18
C       9.05       0.07      10.36
C       9.06      15.10       4.79
C       0.99       8.24      14.02
C       0.98       6.15      15.14
C       0.97       8.15       1.12
C       0.93       8.94      15.25
C       0.86       4.76      15.06
C       0.77      10.33       0.03
H       9.39      14.48       2.03
H       0.52       2.02      14.47
H      10.00       3.16       3.15
H       0.47      13.09       0.65
H       9.93      11.98      11.96
H       9.39       0.66      13.10
H       8.90       2.01       6.38
H       8.91      13.09       6.55
H       9.09       0.99      10.81
H       9.09      14.18       4.34
H       0.98       8.73      13.13
H       0.92       8.57       2.04
H       0.84       4.31      14.14
H       0.74      10.78       0.95
N       9.34      14.26      11.05
N       0.49      11.05      14.23
N       0.56       4.06       0.87
N       9.37       0.90       4.07
N       8.90       1.14       8.23
N       8.91      14.11       8.32
N       1.00       6.88      14.00
N       0.96       6.79       1.03
