228

Cu       2.80      10.18       2.64
Cu      12.40      13.88       1.37
Cu      10.38       2.96       5.51
Cu       3.79       4.26      10.80
Cu       7.38       0.55       9.52
Cu       9.39      11.48      13.67
Cu       0.79       6.67       6.79
Cu       5.81       7.77      14.94
H       6.80      10.59       8.84
H      12.07       0.64      11.99
H       5.69       8.66       7.92
H       5.64       2.68       1.36
H       7.55       9.90       6.80
H      13.08       9.53      15.87
H      11.39      13.78      14.89
H       0.21      11.06       7.46
H       5.78       6.10       8.66
H       0.10       2.31       8.60
H       5.48       6.58       4.31
H       2.91       8.92       5.40
H      11.81       4.00      13.34
H       2.72       7.58      11.79
H       1.04       8.43      15.03
H       5.22       3.22       2.97
H      10.92      11.91       8.04
H       7.84       1.31      14.25
H       6.69       4.91       7.71
H      11.93      13.12       6.10
H       1.79       6.56       9.58
H      12.51       9.49      13.28
H       6.81       2.59      13.53
H       0.81       8.33       0.50
H       7.15      10.89       3.07
H      12.28      12.99       8.39
H       5.95       0.37      12.90
H       9.50      12.73      10.91
H       3.68       5.52      13.56
H       6.24       4.78      14.54
H       6.03       3.68       5.08
H       1.38      11.21      11.13
H       1.25       5.90       2.05
H       4.35       5.22       4.12
H       5.34       8.53      10.21
H       0.67       2.27      11.19
H       3.87       6.86       3.64
H       0.95      11.75       9.51
H       7.23       7.58      11.57
H       6.94      11.99       9.93
H      12.14       1.21       9.43
H       4.78       9.44      11.64
H       2.56       6.30      15.72
H       4.03       8.14       7.56
H      12.05       9.93       7.33
H       8.83      12.44       4.03
H       0.90       3.77      10.24
H       6.37       9.80      10.93
H       0.22       4.63       2.78
H       4.33       9.74       8.26
H       6.38       3.37      15.62
H       1.11       7.86      12.47
H       1.81       5.00       3.48
H      10.46       0.36      12.67
H       8.62      10.92       0.99
H       7.71      13.79       3.84
H       8.40       2.22      12.83
H       7.97      10.44       5.18
H       2.24       9.21      12.27
H       5.46      11.72       8.98
H       0.56      10.76      13.23
H       7.63      13.22       1.27
H       7.49       3.45       6.06
H      12.62       3.54      11.23
H       9.32      14.08       4.52
H       8.86       2.52      16.20
H      12.54       6.85       3.41
H       8.39       0.66       6.73
H       5.69      10.67       2.09
H      12.28      10.98      14.22
H       7.26       4.95       5.12
H       7.73       4.51      15.48
H       7.40      13.32      15.81
H       4.80       7.87       1.42
H      12.84       2.44       1.77
H       0.35       9.66       6.38
H       5.92      12.17       3.03
H       2.27       4.70       0.11
H      10.94       2.00      12.19
H      12.96      11.85       5.38
H      11.37      12.21       4.67
H       1.14       2.71       0.83
H      11.15       3.51       9.15
H       0.64      14.07       4.74
H       2.03      10.73      15.32
H      10.62      13.52       8.74
H       6.49      12.12       0.44
H       4.56       3.70       7.16
H      12.23       4.54      14.95
H       5.55       6.00       6.88
H       9.15       0.92       0.59
H      10.28       1.70       2.75
H      12.97       3.85       0.69
H       0.90       5.78      16.08
H       7.49       1.44       0.23
H      12.37       1.11       7.65
C       5.62       2.67       9.44
C       5.39       6.77      12.28
C       1.98      10.04      16.17
C       5.73       5.43       7.79
C       0.83       9.64       9.79
C       0.52       3.36      11.19
C       5.87      10.22       5.50
C       6.32       7.96      12.06
C       7.95      13.13       5.87
C       9.86       2.09       8.18
C       3.27       5.13       8.13
C       0.66      11.05      10.31
C      11.30      12.66       8.76
C       8.47       1.78       0.60
C       1.36       8.52      10.43
C       5.39      10.44       4.19
C       0.04       2.79       0.81
C      11.43      12.09      10.13
C       1.20       3.99      12.35
C      12.64       2.00      15.99
C       7.52       1.78      13.32
C       7.42      12.01       6.52
C       6.55      11.65       8.96
C      11.82       1.30      14.03
C       7.79      13.99      12.18
C      11.30       1.07      12.65
C       6.05       5.22       0.32
C       0.86       9.01      15.95
C       7.45      12.64       0.36
C       4.70       6.15       3.66
C      12.26       4.97       5.41
C      11.20       2.82       8.29
C      12.32       1.79       8.51
C       0.97      11.76       1.28
C       1.20       7.67       4.13
C      12.35       2.43      14.68
C       0.72       4.21      13.66
C       8.57      11.61       0.14
C       5.23       5.92       2.28
C      11.98      11.21      12.11
C       6.63       4.43      15.50
C       7.25      10.60       6.00
C       4.71       9.00       7.55
C       0.93       5.43       2.99
C       7.11       3.86       5.12
C      12.21       4.55       6.87
C       6.86       0.75      12.40
C       8.48      13.37       4.50
C       4.61       4.40       8.02
C       7.56       9.89      15.03
C       7.80       3.22       3.96
C       1.76       4.88      14.33
C       7.52       9.46      13.57
C       7.13      12.44       7.84
C      12.47      11.43      10.81
C      12.52       3.84      14.15
C       1.89       8.28      11.81
C      12.91      13.69       4.25
C       5.66       9.00      11.14
C       5.76       4.79       1.63
C       0.27       6.47       3.91
C      12.25      12.65       5.17
C       0.92      12.19       2.74
C       5.93       3.38       2.15
C      11.98       0.45       4.03
C      12.66      10.57      13.27
C       4.84       9.56       6.18
C       0.54       9.22       8.47
C      13.14      10.00       7.35
C       6.07      11.08       3.03
C       1.88       5.44      15.71
C       3.33       9.30      16.28
C       5.67       2.25      10.89
C       8.35       2.34       1.98
C       9.92      12.35       0.03
C       7.31       3.00       2.65
N       6.64       8.51      13.36
N       7.47      13.74       7.98
N       1.78      10.74       1.11
N       5.72       6.52       0.17
N       5.24       6.93       1.37
N       7.94      14.14       6.78
N       2.78       4.99      13.45
N       9.05       2.74       4.07
N       4.13       9.96       4.09
N       0.88       7.92       8.33
N      12.31       0.70      16.14
N      13.14       5.92       5.21
N       4.81       3.69       9.26
N       2.46       4.48      12.24
N      11.40       3.53       7.05
N      11.83       0.29      14.93
N       0.05      13.14       2.94
N       6.54       1.29      11.10
N       3.81       9.44       5.30
N       8.37      10.91      15.20
N       1.35       7.51       9.53
N      10.40      12.21      11.01
N       9.37       2.23       2.86
N      10.72      11.69      12.22
O      11.65       0.73       2.80
O      12.92       5.16       7.75
O      10.46      12.40      15.16
O       3.79       8.75      15.26
O       1.68      11.61       3.61
O       2.80       5.69       7.11
O       4.98       6.14      11.28
O       8.12      13.70      10.95
O       1.61       8.29       3.12
O       3.87       9.26       1.15
O      10.38      12.90       1.05
O       1.53       7.95       5.36
O       5.06       6.48      13.51
O       2.72       5.18       9.31
O       6.33       2.06       8.56
O       6.85       9.27      15.90
O      11.58       1.07       5.03
O       8.27      10.04      12.70
O       0.26      12.38       0.41
O      11.51       4.39       4.55
O       8.20      13.36      13.19
O       4.92       2.82      11.76
O       9.39       1.53       9.20
O       9.31       2.04       7.00
