22

Cr       4.48       3.86       9.38
Cr       2.73       6.80       9.40
Cr       1.06       3.82       9.49
C       4.80       6.18       7.34
C       0.39       5.98       7.54
C       2.83       2.27       7.46
C       5.01       6.26      11.26
C       0.59       5.98      11.49
C       2.96       2.26      11.40
O       4.00       2.49       7.89
O       5.00       5.07       7.94
O       1.43       6.70      10.86
O       4.06       7.08       7.83
O       1.34       6.66       8.03
O       0.07       4.85       7.99
O       1.80       2.69       8.07
O       4.09       2.53      10.94
O       5.09       5.11      10.76
O       4.16       7.12      10.88
O       0.16       4.88      11.03
O       1.89       2.73      10.89
O       2.76       4.83       9.43
