22

Cr      -4.37       9.07      18.71
Cr      -0.95       9.06      18.96
Cr      -2.67       6.10      18.83
C      -2.68      10.65      20.80
C      -0.67       6.71      20.97
C      -5.07       6.89      20.64
C      -2.42      10.63      16.88
C      -0.37       6.70      17.02
C      -4.77       6.92      16.69
O      -1.39       5.81      20.45
O      -4.11       6.21      20.14
O      -5.20       8.01      17.12
O      -3.50      10.18      17.36
O      -1.29      10.40      17.41
O      -0.28       7.84      17.59
O      -1.19       5.81      17.41
O      -3.92       6.21      17.32
O      -2.66       8.08      18.83
O      -5.40       8.01      20.16
O      -3.69      10.18      20.18
O      -1.50      10.40      20.45
O      -0.47       7.83      20.41
