87

Mg       5.73       4.67       8.08
Mg       2.86       8.11       0.00
Mg       0.00      13.39       7.02
H       4.67       4.96      12.25
H       4.57       2.49       3.03
H       7.53      -0.59       4.69
H       7.46      -2.84       8.79
H       1.15      -6.23      12.08
H       4.00       9.04       1.93
H       2.79      10.11       3.52
H       6.86       5.88       6.31
H       3.92       4.36       1.83
H       8.52       9.34       6.99
H       0.07      -2.00      10.51
H       1.71      13.57       0.64
H       6.79       8.13      10.42
H       6.88       1.38       3.67
H       4.59       2.53       8.25
H       5.80       0.62       8.12
H       4.02       4.85      14.47
H       1.80      -4.37      13.28
H       5.66       6.72       4.59
H       1.13      11.25       6.86
H       7.44      10.10      11.44
H       1.06      13.68       2.86
H       1.73       0.31      13.17
H       2.93       1.39      11.58
C       8.38      10.94       9.85
C       0.21      -5.28      10.56
C       5.52       3.44       4.55
C       0.29      -2.87      10.83
C       1.32      -4.26      12.47
C       7.66       9.96      10.53
C       4.32       3.22      10.28
C       7.18      -1.43       7.17
C       1.46      -1.79      12.76
C       3.16       2.09      12.18
C       0.93      -5.37      11.74
C       2.57      10.81       2.93
C       2.97      10.75       1.61
C       7.27       8.78       9.92
C       4.70       5.71       3.10
C       6.75      -0.17       6.50
C       7.05       0.06       5.19
C       6.02       0.78       7.21
C       5.43       5.85       4.28
C       8.48      -3.98      10.11
C       6.65       1.24       4.58
C       4.40       4.46       2.64
C       1.84      11.90       3.40
C       4.80       3.35       3.36
C       8.30       9.50       7.90
C       7.13       7.29       7.93
C       5.93       2.22       5.25
C       2.75       2.03      13.50
C       0.11      10.68       8.51
C       4.27       6.93       2.35
C       3.07       3.06      14.40
C       1.54      12.92       2.55
C       4.19       4.20      12.56
C       5.61       1.95       6.60
C       1.03      -3.01      12.01
C       5.84       4.74       4.99
C       1.94      12.86       1.22
C       3.79       4.14      13.89
C       1.41      11.95       4.83
C       7.56       8.55       8.61
C       3.89       3.18      11.71
C       2.66      11.78       0.70
O       2.02       0.95      13.95
O       7.41       7.15       6.69
O       7.75      -3.83       8.95
O       3.70       9.67       1.16
O       0.84      11.61       7.80
O       6.57       4.89       6.15
O       6.52       6.44       8.61
O       2.07      -1.96      13.83
O       4.89       2.89       7.31
O       0.79      12.96       5.22
O       1.68      10.94       5.57
O       7.79      -2.28       6.49
O       4.05       2.22       9.54
O       3.66       6.76       1.27
O       4.54       8.07       2.85
O       4.93       4.24       9.89
O       1.18      -0.65      12.26
O       6.91      -1.57       8.41
