13

C       1.34       4.34      25.71
C       0.63       5.19      26.56
C       1.27       6.16      27.31
C       0.68       3.22      24.91
H       4.40       5.72      26.37
H       3.31       3.91      24.98
H      -0.46       5.05      26.66
O      -0.59       3.12      25.04
O       1.41       2.48      24.19
H       0.74       6.83      27.98
N       2.61       6.35      27.23
C       3.31       5.55      26.41
C       2.72       4.56      25.63
