13

H       7.13      12.56      13.59
H       8.21      10.74      14.98
H      11.99      11.87      13.30
H      10.80      13.65      11.99
C       8.22      12.39      13.54
C       8.80      11.39      14.33
C      10.18      11.16      14.25
C      10.91      12.01      13.41
C      10.26      12.98      12.66
C      10.84      10.04      15.05
O      12.11       9.96      14.95
N       8.92      13.19      12.71
O      10.10       9.31      15.76
