13

H       1.59       2.52      18.02
H       1.60       0.88      19.96
H      -0.41       3.63      22.38
H      -0.54       5.30      20.49
O      -0.33       6.03      18.14
O       1.18       4.80      16.95
C       0.43       5.05      17.94
C       0.52       4.04      19.10
C       1.12       2.78      18.97
C       1.14       1.88      20.04
C       0.02       3.40      21.39
C      -0.06       4.33      20.35
N       0.60       2.19      21.25
