13

C       7.92       6.20      17.36
C       6.53       6.08      17.34
C       5.73       7.22      17.48
C       6.36       8.45      17.66
C       7.75       8.54      17.64
C       4.22       7.17      17.25
O       3.81       6.12      16.62
O       3.52       8.13      17.69
N       8.49       7.42      17.46
H       8.57       5.32      17.26
H       6.07       5.11      17.19
H       5.77       9.36      17.77
H       8.29       9.49      17.71
