13

C       5.75      10.29       8.06
C       5.83       9.35       7.02
O       4.60       8.91       3.61
O       6.08       7.64       4.83
H       4.18      11.17       4.69
N       5.17      11.51       7.93
H       6.17      10.05       9.06
H       6.31       8.38       7.17
H       4.17      12.80       6.64
C       5.31       8.65       4.64
C       5.27       9.66       5.77
C       4.65      10.91       5.64
C       4.63      11.80       6.72
