64

Gd       2.28      -0.00       7.09
Gd       2.28      -0.00      13.40
Gd       0.29       4.10       6.57
Gd       0.29       4.10       0.26
H      -3.33       3.56       6.96
H      -3.33       3.66       8.51
H       3.92       4.65       6.96
H       3.92       4.55       8.51
H      -3.37       3.50      13.53
H      -3.46       3.46      11.98
H      -1.19      -3.50      13.53
H      -1.10      -3.46      11.98
H       5.90       0.54       6.70
H       5.90       0.44       5.15
H      -1.34      -0.54       6.70
H      -1.34      -0.44       5.15
H       5.94       0.61       0.13
H       6.03       0.65       1.68
H       3.76       7.60       0.13
H       3.67       7.56       1.68
C      -2.83       5.38       7.63
C      -3.62       4.11       7.71
C       3.42       2.83       7.63
C       4.20       4.09       7.71
C      -4.79       2.25      12.86
C      -3.99       3.52      12.79
C       0.23      -2.25      12.86
C      -0.57      -3.52      12.79
C       5.40      -1.28       6.03
C       6.19      -0.01       5.96
C      -0.84       1.28       6.03
C      -1.63       0.01       5.96
C       7.36       1.85       0.80
C       6.57       0.59       0.88
C       2.34       6.36       0.80
C       3.14       7.62       0.88
C       2.94      -0.41      10.25
C       1.62       0.41      10.25
C      -0.36       4.52       3.42
C       0.95       3.69       3.42
O       0.65      -1.70       7.87
O      -1.63       5.26       7.28
O       3.36      -0.79       9.13
O       3.91       1.70       7.87
O       2.21       2.95       7.28
O       1.20       0.79       9.13
O       3.10       2.21      12.62
O      -4.15       1.23      13.21
O       3.46      -0.63      11.36
O       1.46      -2.21      12.62
O      -0.41      -1.23      13.21
O       1.10       0.63      11.36
O       1.93       5.81       5.79
O       4.20      -1.15       6.38
O      -0.79       4.90       4.53
O      -1.34       2.40       5.79
O       0.36       1.15       6.38
O       1.37       3.31       4.53
O      -0.53       1.89       1.04
O       6.73       2.88       0.45
O      -0.89       4.73       2.30
O       1.12       6.32       1.04
O       2.98       5.33       0.45
O       1.48       3.48       2.30
