12

C       8.46       7.63       4.97
C       9.82       8.17       4.62
C       9.85       8.95       3.31
C       9.87       8.03       2.12
O       8.28       7.03       6.09
O       7.47       7.78       4.16
O       9.90       6.76       2.30
O       9.88       8.51       0.93
H      10.50       7.31       4.57
H      10.13       8.79       5.47
H       8.97       9.60       3.20
H      10.74       9.61       3.24
