12

O      11.37      21.54      10.15
O      12.29      20.20       8.63
O      13.77      23.55      12.67
O      14.15      23.12      10.51
H      14.36      20.38      10.22
H      13.25      19.28      11.06
H      12.49      21.13      12.55
H      14.24      20.87      12.71
C      12.29      20.72       9.79
C      13.41      20.34      10.76
C      13.45      21.21      12.02
C      13.64      22.66      11.77
