12

C       0.24      19.34       3.66
C      -0.84      18.38       4.05
C      -2.20      19.00       4.39
C      -2.17      19.65       5.74
O       1.48      18.94       3.73
O      -0.04      20.50       3.21
O      -1.26      19.28       6.57
O      -3.03      20.54       6.05
H      -0.46      17.78       4.89
H      -0.97      17.71       3.18
H      -2.52      19.76       3.67
H      -2.97      18.21       4.42
