12

H       6.50      23.64      10.49
H       5.83      22.01      10.60
H       4.58      22.24       8.53
H       4.28      23.69       9.46
C       7.46      22.24       9.27
C       6.22      22.78       9.87
C       5.08      23.14       8.91
C       5.42      23.97       7.69
O       8.47      21.84       9.95
O       7.45      21.70       7.97
O       6.63      24.33       7.42
O       4.48      24.25       6.88
