12

O       4.23      10.45       3.09
O       3.46      11.75       4.72
O       5.95      13.84       4.75
O       5.84      14.15       6.95
H       6.49      11.60       4.10
H       6.11      10.08       4.91
H       4.96      11.64       6.76
H       6.74      11.60       6.73
C       4.43      11.11       4.18
C       5.80      11.13       4.81
C       5.84      11.87       6.14
C       5.87      13.36       5.94
