12

H       3.55      14.51      15.51
H       3.04      13.07      16.43
H       1.50      12.46      14.42
H       1.03      13.88      15.38
C       4.25      12.66      14.78
C       3.17      13.48      15.42
C       1.81      13.47      14.72
C       1.85      14.30      13.48
O       5.48      12.92      15.08
O       3.96      11.68      14.01
O       2.76      15.21      13.37
O       0.99      14.12      12.54
