12

C      12.00      12.99       4.22
C      10.92      13.77       4.91
C       9.70      13.97       4.01
C      10.05      14.61       2.72
O      11.73      12.11       3.27
O      13.09      12.59       5.06
O       9.29      14.65       1.67
O      11.30      15.23       2.50
H      11.34      14.74       5.17
H      10.58      13.28       5.85
H       8.96      14.59       4.57
H       9.21      13.00       3.79
