120

Mg      10.39       5.30      17.43
Mg       7.29       3.86      18.63
Mg      10.39       5.94       1.68
Mg       7.29       7.38       0.47
Mg      12.61      10.92      11.23
Mg       9.51       9.48      10.02
Mg       3.74       0.32       7.88
Mg       9.51       1.76       9.08
H       7.52       2.73      14.10
H       4.51       6.62       1.75
H       8.32       6.54      14.99
H       8.82       5.22      11.26
H      12.66       1.94      18.61
H       8.79       6.95      12.77
H       7.52       8.51       5.01
H      13.38       4.62      17.36
H       8.32       4.70       4.11
H       8.82       6.02       7.84
H       3.79       9.30       0.49
H       8.79       4.29       6.33
H       9.74       8.35      14.56
H       6.73       1.00       7.81
H       6.10       0.92      13.66
H      11.03      10.84      17.40
H       6.01       7.56      10.05
H       6.58       1.33      15.88
H       9.74       2.89       4.55
H       6.73      10.24      11.30
H       6.10      10.32       5.44
H       2.16       0.40       1.71
H       6.01       3.68       9.06
H       6.58       9.91       3.22
H       0.52       0.00       0.00
H       4.71       0.00       0.00
H       7.18       5.62       9.55
H      11.36       5.62       9.55
C       7.63       4.33      16.21
C      10.78       1.18      18.80
C       8.18       2.68      11.52
C       8.16       3.81      12.52
C      10.04       2.45      18.50
C       7.81       3.58      13.84
C       4.52       6.02       1.04
C       8.26       5.85      14.37
C       7.88       4.60      14.78
C       8.56       5.07      12.14
C      12.19       1.16      18.81
C       8.57       6.09      13.05
C       7.63       6.91       2.90
C      10.78      10.06       0.30
C       8.18       8.56       7.58
C       8.16       7.43       6.59
C      10.04       8.79       0.60
C       7.81       7.66       5.27
C      13.38       5.22      18.07
C       8.26       5.39       4.73
C       7.88       6.64       4.33
C       8.56       6.17       6.97
C      12.19      10.08       0.30
C       8.57       5.15       6.06
C       9.85       9.95      12.45
C      13.00       6.80       9.86
C      10.40       8.30      17.13
C      10.37       9.43      16.14
C      12.26       8.07      10.16
C      10.02       9.20      14.82
C       6.73       0.40       8.51
C       6.05       0.23      14.29
C      10.10      10.22      13.88
C      10.77      10.69      16.52
C       5.54       6.78       9.85
C       6.36       0.47      15.61
C       9.85       1.29       6.66
C       4.13       4.44       9.25
C      10.40       2.94       1.97
C       1.51       1.81       2.97
C       3.39       3.17       8.95
C      10.02       2.04       4.29
C      15.60      10.84      10.59
C       6.05      11.01       4.82
C      10.10       1.02       5.23
C       1.90       0.55       2.59
C       5.54       4.46       9.26
C       6.36      10.77       3.50
C      12.90      -0.00      19.11
C       5.63       0.00       0.00
C       6.24       5.62       9.55
C      12.29       5.62       9.55
O       5.56       6.01       0.31
O       8.51       2.95      10.35
O       8.35       4.93      17.08
O       6.73       3.52      16.59
O       3.49       5.31       0.92
O       7.94       1.53      11.97
O      10.74       3.41      18.08
O       8.78       2.48      18.70
O      14.43       5.22      18.79
O       8.51       8.29       8.76
O       8.35       6.31       2.03
O       6.73       7.72       2.51
O      12.36       5.93      18.19
O       7.94       9.71       7.14
O      10.74       7.83       1.03
O       8.78       8.76       0.41
O       7.78       0.39       9.24
O      10.73       8.57      18.31
O      10.57      10.55      11.58
O       8.94       9.14      12.06
O      10.14      10.93       8.63
O      10.15       7.15      16.69
O      12.96       9.03      10.58
O      10.99       8.10       9.96
O       7.78      10.84       9.87
O       1.86       2.67       0.79
O      10.57       0.69       7.53
O       8.94       2.10       7.04
O      10.14       0.31      10.47
O      10.15       4.09       2.41
O       4.09       2.21       8.53
O      10.99       3.14       9.15
