134

Ag       8.01       2.03       7.85
Ag      12.79       7.90       2.33
Ag      12.56      15.20      19.07
Ag       3.91       1.79       8.75
Ag      11.73       9.92      20.11
Ag       6.37       6.76      18.50
Ag      14.55      10.80       7.11
Ag      13.66       7.06       7.70
Ag      12.90       6.64      18.47
Ag       8.02      10.69       7.12
Ag       7.63      10.18      19.18
Ag      10.28       4.26      12.05
Ag      10.77       8.15       0.65
Ag       8.23       3.97      13.67
H       9.89       9.96      16.93
H      16.27      14.04      17.38
H      13.52       3.46      10.74
H      11.77      13.84      16.65
H       9.56       8.14       7.08
H      12.68      11.50      22.11
H      13.15       4.20       7.99
H      11.84      11.35      16.25
H       3.82       3.20       4.89
H      11.07       7.52       9.40
H      13.12       9.51       5.02
H      14.30      13.70      15.89
H      11.94       5.55       4.58
H       5.76       1.81       5.60
H       7.72       5.10       7.21
H      11.59       3.13      14.38
H      11.39       4.11      18.40
H      13.08      12.34      19.37
H      10.50      14.30      14.16
H      15.18      15.67      20.72
H      18.49      13.24      18.52
H       9.98       5.89       6.08
H       9.09       6.10      10.02
H       3.89       5.70       5.28
H       7.34       6.49       4.24
H      17.14      14.26      21.38
H       5.24       6.23       2.86
H      18.98      14.57      15.53
H       9.47       7.13       3.10
H       9.18       3.63       9.66
H      17.06      11.78      21.03
H       7.79       5.45      16.39
C       8.53       7.02       2.54
C      15.18      14.60      20.57
C       8.49       4.66      16.66
C       5.83       5.59       6.27
C      14.96      10.46      19.73
C      10.65       6.71       5.88
C      10.02       4.26       9.38
C      13.98      12.72      19.85
C       9.53       4.94      17.57
C       9.82      13.73      17.61
C      16.25      13.80      20.94
C       9.97       5.65       9.57
C       9.71      15.15      17.89
C       7.49       7.16       0.49
C       5.93       7.01       6.54
C      11.19       3.70       8.75
C       4.67       3.67       5.39
C      11.06       6.45       9.22
C      14.47      14.66      16.38
C      11.75       6.51       5.05
C      10.51       3.93      17.78
C      12.43       8.71       5.30
C      10.99      11.81      16.75
C      15.03      11.84      20.15
C      16.19      12.40      20.81
C       8.79      12.86      17.99
C      11.40       8.98       6.23
C       9.62       6.26      18.17
C       6.19       6.51       2.41
C       4.69       5.04       5.63
C      13.59       3.18      11.79
C      11.27       2.32       8.35
C      15.58      14.86      17.19
C      11.32      10.30       6.82
C       9.91      11.02      17.12
C       6.26       6.75       1.02
C      12.25       4.58       8.46
C      10.43       7.96       6.46
C      10.97      13.19      16.98
C       5.75       2.88       5.79
C       7.34       6.65       3.17
C       4.23       2.72      12.32
C       9.56      14.62      13.70
C      18.98      14.77      14.46
C      12.52       3.01      13.84
C       6.86       4.72       6.67
C       5.42       2.58      11.50
C       5.08       6.64       0.17
N      16.04       9.70      19.42
N       8.32       3.48      16.03
N      12.21       5.90       8.71
N      12.40       1.58       8.13
N      10.18      10.52      21.51
N      15.95      12.54       7.63
N      10.60      12.19       7.62
N       8.54       7.05      18.41
N      10.19       1.56       8.03
N       5.45       2.39      10.15
N       7.49       2.50      10.92
N      13.83       9.72      19.51
N      10.33       8.15      18.97
N       8.60       7.28       1.22
N       6.69      12.55       7.69
N       6.77       2.34       9.83
N       8.81      11.53      17.76
N       5.02       5.00      18.31
N      15.56       8.51      19.01
N       6.68       2.65      11.98
N      12.47       3.31      12.52
N       5.50       3.75      18.16
N       8.87      10.50      21.16
N       8.13      10.67      22.23
N       5.32       9.04       6.93
N      12.60       7.53       4.67
N      14.24       8.51      19.07
N      13.88       3.70      17.87
N       6.65       9.00       6.78
N       7.05       7.75       6.54
N      10.19      10.97       7.18
N      14.02      14.05      20.07
N       9.02       8.21      18.90
N      12.39      11.10       7.06
N      14.28       4.96      18.13
N      10.74       6.94      18.52
N      11.90      12.26       7.54
N       3.81       6.73       0.63
N       4.85       7.80       6.77
N       6.83       3.39       6.44
