11

O      15.52       5.73       9.17
C      12.21       3.75      11.12
O      11.86       6.45       9.82
Ni      13.69       5.83       9.78
C      13.26       2.93       9.21
C      14.66       7.26      12.18
C      14.93       4.96      12.25
N      14.44       6.05      11.63
N      12.99       3.97      10.04
C      15.95       5.09       8.08
C      11.43       7.65      10.23
