186

C       9.95      -7.26      14.00
C       0.21      -7.22      15.40
C       0.12      -6.03      16.14
C       9.96      -4.78      15.48
C       9.81      -4.78      14.06
C       9.70      -6.01      13.37
C       9.95      22.99      13.26
C       9.70      21.74      13.89
C       9.80      20.52      13.20
C       9.95      20.51      11.78
C       0.11      21.76      11.12
C       0.21      22.95      11.87
C       9.95       0.01      26.54
C       0.21       1.20      25.81
C       0.11       1.26      24.41
C       9.95       0.06      23.66
C       9.80      -1.17      24.37
C       9.70      -1.16      25.77
C       9.95      15.73       0.72
C       9.70      16.89       1.49
C       9.81      16.91       2.89
C       9.96      15.68       3.60
C       0.12      14.48       2.85
C       0.21      14.54       1.45
C       9.95       7.24      13.98
C       0.21       6.01      13.32
C       0.12       4.77      13.97
C       9.96       4.72      15.38
C       9.81       5.95      16.09
C       9.70       7.16      15.37
C       9.95       8.49      13.28
C       9.70       8.58      11.88
C       9.80       9.79      11.17
C       9.96      11.02      11.87
C       0.12      10.97      13.29
C       0.21       9.72      13.94
C       9.58      20.99       7.59
C       1.38      20.10       6.25
C       0.43      19.56       5.34
C       8.64      20.53       6.63
C       7.27      20.66       6.73
C       2.75      19.90       6.15
C       9.24      21.40       8.89
C       0.72      18.57       4.40
C       9.58      11.81       5.28
C       1.38      11.10       6.72
C       0.42      10.58       7.64
C       8.64      11.21       6.16
C       7.26      11.24       6.00
C       2.74      11.11       6.94
C       9.24      12.74       4.28
C       0.72      10.26       8.98
C       9.58      14.40      14.40
C       1.37      16.01      14.29
C       0.42      17.07      14.28
C       8.64      15.46      14.47
C       7.26      15.32      14.52
C       2.74      16.19      14.17
C       9.24      13.07      14.08
C       0.72      18.38      13.89
C       9.58      -5.27      19.67
C       1.37      -4.36      21.01
C       0.42      -3.82      21.91
C       8.64      -4.80      20.63
C       7.26      -4.93      20.53
C       2.74      -4.16      21.11
C       9.24      -5.67      18.37
C       0.72      -2.83      22.86
C       9.58       3.93      21.98
C       1.38       4.63      20.53
C       0.43       5.15      19.61
C       8.64       4.52      21.10
C       7.27       4.50      21.26
C       2.74       4.62      20.31
C       9.24       3.00      22.98
C       0.72       5.47      18.28
C       9.58       1.33      12.87
C       1.38      -0.28      12.98
C       0.43      -1.33      12.99
C       8.64       0.27      12.79
C       7.26       0.42      12.74
C       2.74      -0.46      13.09
C       9.24       2.66      13.17
C       0.72      -2.65      13.38
H       0.42      -8.07      15.91
H       0.42      23.81      11.35
H       9.69      18.50      11.49
H       0.17      19.30      10.14
H       9.70      -2.77      15.77
H       0.17      -3.57      17.12
H       9.50      -5.96      12.37
H       9.50      21.69      14.89
H       0.42       2.07      26.30
H       0.42      13.66       0.96
H       9.70      16.44       5.49
H       0.17      14.87       5.47
H       9.69      -0.70      21.77
H       0.16       0.87      21.79
H       9.50      -2.05      26.23
H       9.50      17.78       1.03
H       0.42       5.99      12.32
H       0.42       9.74      14.94
H       9.70      12.27      10.28
H       0.17      13.04      11.65
H       9.70       3.46      16.98
H       0.17       2.69      15.61
H       9.50       8.00      15.91
H       9.50       7.73      11.34
H       7.07      22.52       6.87
H       4.17      20.25       4.96
H       8.32      21.15       9.25
H       1.61      18.06       4.48
H       7.07      10.44       4.31
H       4.16       9.91       7.24
H       8.32      13.18       4.32
H       1.61      10.59       9.37
H       7.06      14.23      16.05
H       4.16      17.05      15.06
H       8.32      12.89      13.69
H       1.60      18.56      13.41
H       7.08      -6.80      20.35
H       4.16      -4.56      22.28
H       8.32      -5.42      18.01
H       1.60      -2.32      22.78
H       7.07       5.32      22.94
H       4.17       5.82      20.02
H       8.31       2.57      22.94
H       1.61       5.15      17.88
H       7.07       1.49      11.20
H       4.16      -1.32      12.20
H       8.32       2.85      13.57
H       1.61      -2.83      13.86
N       9.95      -3.61      16.18
N       9.94      19.34      11.08
N       0.16      21.88       9.77
N       9.82      19.39      13.96
N       9.82      -3.66      13.30
N       0.16      -6.15      17.50
N       9.94       0.08      22.29
N       9.95      15.66       4.97
N       0.16      13.25       3.42
N       9.82      18.13       3.48
N       9.82      -2.39      23.78
N       0.16       2.49      23.84
N       9.95       3.53      16.05
N       9.95      12.21      11.21
N       0.16      12.08      14.07
N       9.82       9.69       9.81
N       9.82       6.05      17.44
N       0.16       3.66      13.19
N       0.90      20.77       7.33
N       9.11      19.83       5.57
N       0.90      11.70       5.60
N       9.11      10.65       7.30
N       0.89      14.74      14.33
N       9.11      16.73      14.40
N       0.90      -5.04      19.93
N       9.11      -4.10      21.69
N       0.90       4.04      21.66
N       9.11       5.09      19.96
N       0.90       1.00      12.93
N       9.11      -1.00      12.87
O       6.67      19.65       7.09
O       6.72      21.72       7.02
O       3.42      19.84       7.18
O       3.29      20.26       5.10
O       6.65      12.01       6.72
O       6.71      10.96       4.93
O       3.42      12.03       6.48
O       3.29      10.02       7.17
O       6.64      15.57      13.50
O       6.71      14.53      15.29
O       3.41      15.34      13.60
O       3.29      16.93      15.00
O       6.63      -3.93      20.24
O       6.71      -6.00      20.23
O       3.41      -4.10      20.08
O       3.28      -4.55      22.14
O       6.67       3.69      20.57
O       6.72       4.79      22.33
O       3.42       3.70      20.77
O       3.29       5.71      20.09
O       6.65       0.18      13.76
O       6.71       1.20      11.96
O       3.42       0.40      13.66
O       3.29      -1.20      12.26
