16

C      12.33       9.93       8.15
C      11.36       9.78       7.17
C      11.48      10.46       5.95
H      10.72      10.37       5.17
C      13.55      11.45       6.71
C      12.59      11.29       5.72
C      12.72      12.01       4.41
H      14.41      12.10       6.55
C      13.42      10.78       7.94
H      10.49       9.15       7.37
H      12.26       9.39       9.10
C      14.47      10.98       8.99
O      14.32      10.30      10.08
O      15.40      11.79       8.74
O      13.69      12.85       4.32
O      11.88      11.73       3.52
