16

O       6.01      10.07       9.42
C       8.53       6.86       8.63
H       7.55       8.73       8.11
H       9.17       6.84       7.75
O       8.98       4.01      11.77
O       7.03       4.67      12.63
C       6.90       6.88      10.89
H       6.27       6.88      11.77
C       5.91       9.09      10.22
C       6.81       7.92       9.96
C       7.63       7.90       8.82
O       5.11       9.02      11.22
C       8.66       5.84       9.58
C       7.83       5.85      10.72
H       9.41       5.07       9.47
C       7.93       4.81      11.77
