66

Co       0.14       1.17       8.77
Co       2.46      -0.71       9.57
Co       4.79      -0.45       7.54
Co       2.18       6.31       4.17
Co      -0.14       8.19       3.38
Co      -2.46       7.93       5.40
H      -0.07       6.90       0.30
H      -2.39      11.24       5.83
H       2.26       4.27       6.83
H       2.39       0.58      12.65
H       4.71      -3.77       7.12
H       0.07       3.20       6.12
C       0.53       0.24      11.64
C      -0.85      -0.09      11.82
C       0.98       7.16       0.16
C      -1.79      -0.30      10.67
C       2.85      -2.72       7.33
C       1.47      -2.70       6.96
C      -1.34      11.23       6.12
C       0.54      -1.61       7.35
C      -1.79       2.49       6.92
C       3.80       2.80       7.12
C       3.31       4.03       6.67
C       2.87       1.92       7.87
C       1.80       7.24       1.30
C       3.18       7.57       1.13
C       1.34       0.32      12.78
C       4.11       7.78       2.27
C      -0.53      10.20       5.62
C       0.85      10.18       5.99
C       3.67      -3.75       6.83
C       1.78       9.08       5.60
C       4.12       4.98       6.03
C      -1.48       4.67       5.83
C      -0.98       3.44       6.28
C      -0.55       5.56       5.07
N      -0.50       2.82       9.69
N      -0.79       3.79      10.17
N       1.83      -2.33      10.54
N       1.53      -3.22      11.15
N       4.15      -0.48       5.66
N       3.85      -0.56       4.57
N       2.82       4.66       3.25
N       3.12       3.68       2.78
N       0.49       9.80       2.41
N       0.79      10.70       1.79
N      -1.83       7.96       7.29
N      -1.53       8.04       8.37
O       1.09       0.46      10.44
O      -1.33      -0.19       9.47
O       3.98      -0.62      10.92
O       3.42      -1.80       8.13
O       1.00      -0.62       8.04
O      -0.66      -1.67       6.94
O      -1.22       1.34       7.31
O       3.33       0.82       8.38
O       1.67       2.30       8.03
O       1.23       7.02       2.50
O       3.65       7.67       3.47
O      -1.66       8.10       2.02
O      -1.10       9.28       4.81
O       1.32       8.10       4.91
O       2.98       9.14       6.00
O       3.55       6.14       5.63
O      -1.00       6.65       4.57
O       0.66       5.17       4.92
