16

N      -0.83       3.35      11.48
N      -2.91       7.45       7.39
O      -1.76       7.90      12.61
O      -1.98       2.89       6.26
C      -1.99       4.18       8.11
C      -1.75       6.61      10.76
C      -1.99       6.74      12.17
C      -1.75       4.05       6.70
C      -2.06       5.36       8.72
C      -1.68       5.43      10.15
H      -1.92       7.52      10.19
H      -1.82       3.27       8.67
O      -2.80       5.90      12.73
O      -0.94       4.89       6.14
C      -1.21       4.27      10.89
C      -2.53       6.52       7.98
