30

H       6.71       2.31      18.06
H      -0.42       8.48      19.68
H       6.11       4.46      17.20
H       0.18       6.33      20.54
H       3.35       2.39      20.58
H       2.94       8.40      17.15
C       4.27       4.71      18.35
C       2.02       6.08      19.38
C       2.14       4.71      21.46
C       4.15       6.08      16.27
C       3.76       5.86      17.69
C       2.53       4.94      20.05
C       5.45       4.04      17.92
C       0.84       6.75      19.81
C       5.82       2.80      18.44
C       0.46       7.99      19.30
C       5.08       2.24      19.45
C       1.21       8.55      18.29
C       3.95       2.91      19.91
C       2.34       7.88      17.83
C       3.58       4.19      19.45
C       2.71       6.61      18.28
C       5.50       1.01      20.06
C       0.79       9.79      17.67
N       5.85       0.02      20.56
N       0.44      10.77      17.17
O       2.92       3.96      22.18
O       3.37       6.83      15.56
O       1.73       5.77      22.06
O       4.56       5.02      15.67
