30

H      -0.42       8.48       8.62
H       6.71       2.31      10.25
H       0.18       6.33       7.76
H       6.11       4.46      11.11
H       2.94       8.40      11.15
H       3.35       2.39       7.72
C       2.02       6.08       8.92
C       4.27       4.71       9.95
C       4.15       6.08      12.03
C       2.14       4.71       6.84
C       2.53       4.94       8.25
C       3.76       5.86      10.61
C       0.84       6.75       8.49
C       5.45       4.04      10.38
C       0.46       7.99       9.00
C       5.82       2.80       9.87
C       1.21       8.55      10.01
C       5.08       2.24       8.85
C       2.34       7.88      10.48
C       3.95       2.91       8.39
C       2.71       6.61      10.02
C       3.58       4.19       8.85
C       0.79       9.79      10.63
C       5.50       1.01       8.24
N       0.44      10.77      11.13
N       5.85       0.02       7.74
O       3.37       6.83      12.74
O       2.92       3.96       6.12
O       4.56       5.02      12.63
O       1.73       5.77       6.24
