16

N       7.12       7.45       2.04
N       9.20       3.35      -2.04
C       8.28       6.61      -1.33
C       8.04       4.18       1.33
O       8.05       2.89       3.17
O       8.27       7.90      -3.17
C       8.35       5.43      -0.72
C       7.97       5.36       0.72
C       8.28       4.05       2.74
H       8.21       3.27       0.76
H       8.11       7.52      -0.76
C       8.04       6.74      -2.74
C       7.50       6.52       1.46
C       8.82       4.27      -1.46
O       9.09       4.89       3.29
O       7.23       5.90      -3.29
