13

H       0.93       9.42       6.46
H       4.39      11.97       6.33
H       1.94       8.10       4.59
H       5.25      10.59       4.40
N       3.61       9.29       4.44
O       2.80      12.46       8.22
O       0.80      11.54       7.93
C       1.86       9.73       6.00
C       3.81      11.15       5.93
C       1.99      11.67       7.60
C       2.43       8.98       4.99
C       2.55      10.86       6.47
C       4.31      10.37       4.88
