13

C       1.22       5.83       6.98
C      -0.61       6.35       5.31
C      -0.16       3.66       7.92
C      -0.03       5.54       6.43
C       1.72       5.04       8.02
H      -1.65       4.09       6.44
H       1.80       6.64       6.57
N       1.03       3.96       8.46
H      -0.65       2.77       8.31
H       2.67       5.26       8.50
O       0.20       7.14       4.69
O      -1.79       6.22       4.97
C      -0.73       4.41       6.90
