13

H       4.35       0.96      12.68
H       3.60      -0.23      14.77
H       6.93      -2.70      14.65
H       7.89      -1.48      12.70
N       5.24      -1.53      14.77
O       5.90       1.58      10.91
O       7.90       0.61      11.02
C       6.21      -0.08      12.59
C       4.97       0.21      13.15
C       4.52      -0.49      14.27
C       6.42      -1.85      14.21
C       6.95      -1.16      13.12
C       6.73       0.75      11.44
