21

Mn      -1.55      12.77       3.38
Mn      -0.33      16.08       2.54
Mn      -2.99       9.45       3.00
C      -0.64       9.77       1.93
C      -2.48      10.48       5.57
O      -2.10      11.45       4.93
O      -2.10      14.37       4.69
C      -1.67      14.69       0.79
O       0.55      12.84       3.91
O       0.93      15.03       3.80
O      -1.78      16.46       3.97
O      -2.88       9.41       5.05
O      -1.12      13.99       1.67
O      -3.58      12.80       2.67
O      -1.72      15.94       0.89
O      -4.39      10.76       2.31
C      -4.49      12.01       2.39
O      -1.13      10.87       2.25
O      -1.29       8.70       2.03
C       1.29      13.85       3.99
C      -2.20      15.62       4.79
