21

C       7.25       1.99       4.57
C       9.09       1.28       8.22
Mn       8.18       4.29       6.77
Mn       9.40       7.59       7.61
Mn       6.73       0.97       7.14
O       8.59       2.38       7.90
O       8.44       0.22       8.11
O       8.61       5.50       8.47
O       6.15       4.32       7.48
O       8.00       7.45       9.25
O       5.34       2.28       7.83
C       8.06       6.20       9.35
O       7.63       2.97       5.21
O       7.62       5.88       5.45
O      10.28       4.36       6.23
O      10.66       6.54       6.35
O       7.94       7.97       6.17
O       6.85       0.92       5.09
C       5.23       3.52       7.76
C      11.02       5.36       6.15
C       7.53       7.13       5.35
