21

Mn      15.51       4.20      16.91
Mn      14.29       0.90      17.75
Mn      16.96       7.52      17.29
C      18.46       4.96      17.90
C      14.60       7.21      18.36
O      15.10       6.11      18.04
O      15.25       8.27      18.26
C      12.68       3.13      16.30
O      16.07       5.52      15.35
O      16.07       2.60      15.59
O      13.42       4.13      16.37
O      13.04       1.94      16.49
O      15.75       0.51      16.31
C      16.17       1.36      15.49
O      16.84       7.57      15.24
O      15.08       2.99      18.62
O      17.55       4.17      17.62
C      16.45       6.49      14.71
O      15.69       1.03      19.39
O      18.36       6.21      17.98
C      15.64       2.28      19.50
