213

C      14.86       2.06      50.15
C      13.49       2.33      50.16
C      12.78       1.13      50.17
C      13.69       0.07      50.16
C      21.69      13.41      50.16
C      20.30      13.15      50.17
C      19.40      14.25      50.18
C      11.40       0.90      50.17
C      13.02       3.66      50.17
C      13.94       4.71      50.17
C      15.35       4.48      50.16
C      15.79       3.13      50.15
C      15.89       0.11       0.47
C       8.55      14.10       0.01
C       8.54      14.10      49.45
C      15.88       0.11      49.00
C       9.46      13.55      48.55
C       9.23      13.69      47.16
C      25.02      14.35      46.67
C      15.65       0.24      47.61
C      15.67       0.25       1.86
C      25.06      14.39       2.79
C       9.24      13.67       2.29
C       9.46      13.53       0.91
C      15.08       0.59      50.15
C       2.17       0.02      16.26
C       3.09       1.07      16.27
C       2.41       2.29      16.28
C      17.98       2.03      16.27
C      17.06       3.11      16.27
C      17.53       4.45      16.28
C      18.93       4.67      16.28
C       2.90       3.60      16.28
C       4.47       0.82      16.28
C      13.40      14.17      16.28
C      12.50      13.06      16.27
C      11.11      13.35      16.26
C      16.92       0.10      17.41
C      24.23      14.14      16.95
C      24.23      14.15      15.56
C      16.91       0.11      15.11
C      23.29      13.63      14.66
C      23.53      13.76      13.27
C      24.68      14.43      12.78
C       0.20       0.25      13.72
C       0.20       0.23      18.81
C      24.69      14.37      19.74
C      23.51      13.76      19.24
C      23.28      13.63      17.86
C       0.79       0.56      16.26
C      23.70      12.03      33.21
C       7.20      10.71      33.22
C       8.59      10.69      33.22
C       9.06      12.01      33.22
C      10.45      12.27      33.22
C      11.38      11.19      33.23
C      10.87       9.87      33.23
C       9.49       9.61      33.23
C       6.29       9.64      33.23
C      21.86       9.91      33.23
C      21.36      11.24      33.22
C      22.30      12.30      33.21
C      24.86      13.90      34.36
C      16.42       0.54      33.90
C      16.43       0.54      32.51
C      24.88      13.89      32.05
C      16.45       1.61      31.60
C      16.45       1.34      30.22
C      16.45       0.01      29.72
C       7.94      13.62      30.66
C       7.91      13.63      35.75
C      16.39       0.03      36.68
C      16.45       1.35      36.18
C      16.46       1.62      34.80
C       7.91      12.96      33.21
C      24.92      14.10      43.03
C      15.54       0.94      41.38
C      16.04       0.12      40.32
C       8.46      13.29      41.97
C      14.79       2.20      41.18
C       8.20      13.77      44.36
C      15.89       0.44      38.97
C      24.51      14.65       9.13
C       9.33      14.67       7.49
C      25.32      14.65       6.43
C      23.57      14.62       8.08
C       2.33       0.01       7.29
C      24.12      14.61      10.47
C       8.72      14.61       5.08
C      16.72       0.04      26.08
C      24.33      13.18      24.44
C      24.79      14.02      23.38
C      17.17       0.87      25.02
C      23.60      11.90      24.24
C      16.89       0.41      27.41
C      24.58      13.73      22.03
C      17.15       7.70      50.15
C      19.50       8.28      50.17
C      19.18       9.67      50.17
C      16.85       9.08      50.15
C      20.88       7.77      50.18
C      16.13       6.76      50.13
C      20.11      10.71      50.17
C      14.38       9.90      16.26
C      13.71       7.57      16.28
C      15.08       7.16      16.28
C      15.73       9.47      16.26
C      12.57       6.63      16.29
C      14.08      11.25      16.24
C      15.51       5.83      16.28
C      17.67      11.19      33.21
C      15.99      12.93      33.22
C      14.95      11.96      33.22
C      16.63      10.24      33.21
C      15.75      14.39      33.23
C      19.00      10.78      33.18
C      13.58      12.25      33.23
H       9.90      13.23       2.93
H      10.27      13.01       0.57
H      10.30      13.07      48.88
H       9.93      13.31      46.52
H      14.82       0.74      47.28
H      14.84       0.75       2.19
H      22.36      12.64      50.16
H      18.39      14.09      50.18
H      10.73       1.68      50.18
H      16.79       2.92      50.15
H      12.02       3.85      50.18
H      13.56       5.66      50.19
H      22.80      13.41      19.88
H      22.43      13.19      17.52
H      22.46      13.14      14.99
H      22.85      13.35      12.63
H       1.05       0.72      13.39
H       1.05       0.70      19.13
H      16.05       2.91      16.27
H      19.29       5.63      16.29
H       3.90       3.79      16.29
H      10.42      12.59      16.26
H       5.14       1.59      16.29
H      14.41      14.02      16.30
H      16.51       2.15      36.82
H      16.50       2.58      34.46
H      16.44       2.58      31.93
H      16.42       2.13      29.58
H       7.92      12.65      30.34
H       7.90      12.66      36.08
H      10.79      13.24      33.22
H      11.52       9.07      33.24
H       9.15       8.65      33.23
H      21.99      13.27      33.20
H       6.62       8.67      33.24
H      21.23       9.11      33.25
H       8.98      12.44      42.15
H      14.51       2.66      42.14
H      13.88       2.01      40.62
H      15.41       2.92      40.64
H       8.68      12.92      44.54
H      15.37       1.25      38.74
H      22.57      14.59       8.26
H       2.86       0.02       8.25
H       2.62       0.90       6.73
H      11.11      13.79       6.75
H      23.14      14.61      10.65
H       9.69      14.65       4.85
H      17.65       1.75      25.20
H      23.35      11.43      25.19
H       7.28      11.21      23.68
H      22.68      12.08      23.69
H      17.38       1.25      27.60
H      24.14      12.88      21.80
H      15.88       9.42      50.15
H       3.95       6.67      50.18
H      21.40       8.11       0.23
H      21.41       8.12      49.29
H      15.21       7.12      50.08
H      21.08      10.51      50.17
H      16.50      10.13      16.25
H      11.62       7.16      16.29
H      12.62       6.00      17.18
H      12.61       6.00      15.40
H      14.85      11.87      16.19
H      14.86       5.09      16.28
H      16.81       9.24      33.20
H       8.21       0.28      33.23
H      15.18      14.67      34.12
H      15.18      14.68      32.34
H      19.15       9.80      33.13
H      13.27      13.19      33.23
N      24.80      14.52      45.35
N      16.27       5.47      50.17
N      19.73      11.94      50.17
N      24.82      14.50       4.11
N      24.93      14.54      11.46
N      12.89      11.77      16.28
N      16.77       5.54      16.28
N      24.91      14.52      21.06
N      24.89      14.41      28.41
N      20.04      11.54      33.23
N      12.71      11.30      33.23
N      24.89      14.44      38.00
N      15.77       0.55      42.67
N       8.24      13.67      40.68
N       8.88      14.66       8.78
N      24.01      14.62       6.79
N      24.55      13.58      25.72
N      16.95       0.49      23.74
N      18.47       7.37      50.16
N      17.85       9.99      50.16
N      13.44       8.91      16.27
N      16.01       8.14      16.27
N      17.29      12.50      33.21
N      15.34      10.66      33.22
