10

O      -1.92       3.55      11.23
H      -5.56       5.94      13.88
H      -5.47       6.08      11.36
H      -3.97       4.32      15.00
N      -3.82       4.85      11.20
N      -3.03       3.81      13.22
C      -4.76       5.49      11.93
C      -3.94       4.50      13.92
C      -4.83       5.38      13.31
C      -2.88       4.05      11.85
