10

H       3.04       5.15       2.80
C       2.07       8.38       2.67
C       2.64       6.10       2.43
C       2.48       7.19       3.27
N       2.36       6.15       1.12
N       1.76       8.47       1.37
C       1.85       7.34       0.55
H       2.01       9.31       3.24
O       1.54       7.37      -0.65
H       2.72       7.14       4.32
