10

C       8.00       2.26       1.52
C       7.18       3.25      -0.47
C       8.07       2.36       0.14
C       6.12       3.70       1.60
N       7.06       2.90       2.25
N       6.26       3.94       0.23
H       7.21       3.43      -1.55
H       8.80       1.81      -0.44
H       8.71       1.66       2.09
O       5.16       4.20       2.22
