10

O       4.66       0.19       4.75
H       1.01       1.28       1.36
H       1.13      -0.99       2.47
H       2.60       3.05       2.20
N       2.77      -0.51       3.62
C       1.83      -0.20       2.71
N       3.55       1.77       3.52
C       1.75       1.06       2.12
C       2.63       2.03       2.58
C       3.71       0.46       4.00
