792

C      16.29      39.14      13.58
C      17.55      40.09      13.66
C      15.04      40.08      13.48
C      14.91      41.03      14.73
C      16.22      41.90      14.79
C      17.54      41.05      14.90
C      17.42      40.18      16.20
C      16.16      39.26      16.22
C      14.88      40.16      16.04
C      16.24      38.34      14.94
C      16.29      18.93       5.50
C      17.55      18.52       4.65
C      15.04      18.37       4.74
C      14.91      18.98       3.30
C      16.22      18.60       2.51
C      17.54      19.12       3.20
C      17.42      20.68       3.29
C      16.16      21.15       4.08
C      14.89      20.56       3.40
C      16.24      20.51       5.52
C      16.29      22.04      27.05
C      17.55      21.50      27.83
C      15.04      21.66      27.91
C      14.91      20.11      28.11
C      16.22      19.61      28.83
C      17.54      19.95      28.04
C      17.42      19.25      26.64
C      16.16      19.70      25.83
C      14.88      19.40      26.69
C      16.24      21.26      25.67
C       5.52     -11.88      32.27
C       6.77     -12.82      32.20
C       4.27     -12.82      32.37
C       4.13     -13.76      31.12
C       5.45     -14.64      31.06
C       6.76     -13.78      30.96
C       6.65     -12.92      29.65
C       5.39     -12.00      29.63
C       4.11     -12.89      29.81
C       5.47     -11.08      30.91
C       5.52       8.33      40.35
C       6.77       8.74      41.20
C       4.27       8.89      41.11
C       4.13       8.28      42.55
C       5.45       8.66      43.34
C       6.76       8.15      42.65
C       6.65       6.58      42.56
C       5.38       6.11      41.77
C       4.11       6.71      42.45
C       5.47       6.75      40.33
C       5.52       5.22      18.80
C       6.77       5.76      18.02
C       4.27       5.60      17.94
C       4.13       7.16      17.74
C       5.44       7.65      17.02
C       6.76       7.31      17.81
C       6.65       8.01      19.21
C       5.38       7.57      20.02
C       4.11       7.86      19.16
C       5.46       6.00      20.18
C       5.61      12.78      31.33
C       4.31      13.68      31.35
C       6.86      13.73      31.23
C       6.84      14.67      29.99
C       5.52      15.50      30.13
C       4.22      14.62      30.09
C       4.23      13.67      28.83
C       5.53      12.79      28.71
C       6.78      13.75      28.72
C       5.60      11.91      30.02
C       5.61      -6.30      40.63
C       4.31      -6.76      41.40
C       6.86      -6.69      41.50
C       6.84      -6.08      42.94
C       5.52      -6.62      43.58
C       4.22      -6.14      42.84
C       4.23      -4.57      42.65
C       5.53      -4.04      41.95
C       6.78      -4.52      42.77
C       5.60      -4.73      40.53
C       5.61      -4.81      19.46
C       4.31      -5.25      18.67
C       6.87      -5.37      18.69
C       6.84      -6.92      18.49
C       5.52      -7.21      17.70
C       4.22      -6.81      18.49
C       4.24      -7.43      19.94
C       5.54      -7.08      20.76
C       6.78      -7.55      19.92
C       5.60      -5.51      20.86
C      16.38      14.48      14.52
C      15.08      13.58      14.50
C      17.64      13.53      14.62
C      17.62      12.59      15.86
C      16.29      11.76      15.72
C      14.99      12.65      15.76
C      15.01      13.59      17.02
C      16.31      14.47      17.14
C      17.56      13.51      17.13
C      16.37      15.35      15.83
C      16.38      33.56       5.23
C      15.08      34.02       4.45
C      17.64      33.95       4.35
C      17.62      33.35       2.91
C      16.29      33.88       2.27
C      14.99      33.40       3.01
C      15.01      31.83       3.20
C      16.31      31.30       3.90
C      17.56      31.78       3.08
C      16.37      31.99       5.32
C      16.38      32.07      26.39
C      15.08      32.51      27.18
C      17.64      32.63      27.16
C      17.62      34.18      27.36
C      16.29      34.47      28.15
C      14.99      34.07      27.36
C      15.01      34.69      25.91
C      16.31      34.35      25.09
C      17.56      34.82      25.93
C      16.37      32.77      24.99
C      16.28      35.08      23.76
C      16.32      34.44      22.49
C      16.18      36.50      21.29
C      16.14      37.23      22.51
C      16.19      36.50      23.71
C      16.14      37.18      20.06
C      16.17      37.10      17.67
C      16.10      38.52      17.55
C      16.02      39.23      18.77
C      16.05      38.60      20.03
C      16.00      39.32      21.25
C      16.05      38.64      22.48
C      16.28      29.77       3.94
C      16.32      29.00       5.12
C      16.19      26.93       3.94
C      16.14      27.62       2.70
C      16.20      29.03       2.73
C      16.14      25.52       3.96
C      16.17      23.49       5.22
C      16.10      22.68       4.06
C      16.03      23.38       2.83
C      16.05      24.79       2.75
C      16.01      25.48       1.52
C      16.06      26.89       1.49
C      16.27      15.26      18.44
C      16.31      16.68      18.52
C      16.18      16.68      20.90
C      16.14      15.27      20.93
C      16.19      14.59      19.69
C      16.14      17.41      22.11
C      16.17      19.52      23.24
C      16.10      18.92      24.52
C      16.02      17.50      24.53
C      16.05      16.73      23.35
C      16.00      15.31      23.37
C      16.05      14.58      22.16
C       5.50      -7.82      22.09
C       5.54      -7.17      23.36
C       5.41      -9.24      24.56
C       5.37      -9.97      23.34
C       5.42      -9.24      22.14
C       5.37      -9.92      25.79
C       5.40      -9.84      28.18
C       5.33     -11.25      28.30
C       5.25     -11.97      27.08
C       5.28     -11.34      25.82
C       5.23     -12.06      24.60
C       5.28     -11.38      23.37
C       5.50      -2.51      41.92
C       5.54      -1.74      40.73
C       5.41       0.33      41.91
C       5.37      -0.35      43.15
C       5.42      -1.76      43.12
C       5.36       1.74      41.89
C       5.40       3.77      40.63
C       5.33       4.58      41.79
C       5.25       3.88      43.02
C       5.27       2.47      43.10
C       5.23       1.79      44.34
C       5.28       0.38      44.36
C       5.50      12.00      27.41
C       5.54      10.59      27.33
C       5.41      10.58      24.95
C       5.37      11.99      24.92
C       5.42      12.67      26.16
C       5.36       9.85      23.74
C       5.40       7.74      22.61
C       5.33       8.34      21.33
C       5.25       9.76      21.32
C       5.27      10.53      22.50
C       5.23      11.95      22.48
C       5.28      12.68      23.69
C      18.83      41.84      14.99
C      18.91      43.24      15.19
C      21.22      43.14      15.81
C      21.24      41.75      15.53
C      20.06      41.14      15.08
C       0.80      -8.54      16.39
C       1.89      -6.60      17.31
C       3.01      -7.36      17.75
C       2.96      -8.75      17.47
C       1.91      -9.34      16.75
C       1.95      41.57      16.43
C       0.85      40.97      15.80
C      18.83      18.80       2.46
C      18.91      18.27       1.15
C      21.22      18.86       0.93
C      21.24      19.31       2.27
C      20.06      19.22       3.03
C       0.80      19.06       0.10
C       1.89      -7.26      43.26
C       3.01      -6.51      43.69
C       2.95      -6.05      45.03
C       1.91      19.77       0.63
C       1.95      20.19       1.98
C       0.85      19.93       2.81
C      18.83      19.47      28.68
C      18.91      18.59      29.79
C      21.22      18.11      29.40
C      21.24      19.05      28.33
C      20.06      19.74      28.03
C       0.80      17.30      29.64
C       1.89      15.54      30.85
C       3.01      15.54      29.98
C       2.95      16.47      28.92
C       1.91      17.39      28.76
C       1.95      18.36      27.72
C       0.85      19.21      27.53
C       8.06     -14.58      30.87
C       8.13     -15.98      30.66
C      10.44     -15.88      30.04
C      10.47     -14.49      30.32
C       9.28     -13.88      30.77
C      11.58     -16.49      29.46
C      12.67      33.86      28.54
C      13.78      34.62      28.10
C      13.73     -16.28      28.38
C      12.68     -15.69      29.10
C      12.72     -14.31      29.42
C      11.62     -13.71      30.05
C       8.06       8.47      43.39
C       8.13       8.99      44.70
C      10.44       8.40      44.92
C      10.47       7.95      43.58
C       9.28       8.03      42.83
C      11.58      34.35       0.46
C      12.67      34.52       2.60
C      13.78      33.77       2.16
C      13.73      33.31       0.82
C      12.68       7.49      45.23
C      12.72       7.08      43.87
C      11.62       7.33      43.04
C       8.06       7.79      17.17
C       8.13       8.67      16.06
C      10.44       9.15      16.45
C      10.47       8.21      17.52
C       9.28       7.52      17.82
C      11.58       9.96      16.21
C      12.67      11.72      15.00
C      13.78      11.73      15.87
C      13.73      10.79      16.93
C      12.68       9.87      17.09
C      12.72       8.90      18.13
C      11.62       8.06      18.32
C       2.83     -14.55      31.16
C       2.75     -15.95      30.93
C       0.45     -15.81      30.31
C       0.42     -14.43      30.66
C       1.60     -13.85      31.14
C      20.90     -16.39      29.65
C      19.91      34.00      28.58
C      18.79      34.75      28.14
C      18.80     -16.16      28.48
C      19.80     -15.58      29.28
C      19.74     -14.22      29.68
C      20.81     -13.66      30.39
C       2.83       8.71      43.21
C       2.75       9.21      44.54
C       0.45       8.60      44.73
C       0.42       8.22      43.36
C       1.60       8.34      42.61
C      20.90      34.47       0.28
C      19.91      34.49       2.45
C      18.79      33.73       2.03
C      18.80      33.34       0.66
C      19.80       7.60      45.05
C      19.74       7.26      43.67
C      20.81       7.59      42.82
C       2.83       7.52      17.05
C       2.75       8.41      15.94
C       0.45       8.88      16.38
C       0.42       7.89      17.39
C       1.60       7.18      17.66
C      20.90       9.74      16.20
C      19.91      11.62      15.10
C      18.79      11.63      15.97
C      18.80      10.64      16.99
C      19.80       9.66      17.09
C      19.74       8.64      18.07
C      20.81       7.74      18.20
C      13.61      41.81      14.69
C      13.52      43.21      14.91
C      11.22      43.07      15.53
C      11.19      41.70      15.19
C      12.37      41.11      14.70
C      10.13      -8.64      16.20
C       9.14      -6.74      17.27
C       8.02      -7.49      17.71
C       8.02      -8.87      17.37
C       9.02      -9.45      16.57
C       8.97      41.49      16.17
C      10.04      40.92      15.46
C      13.61      18.56       2.64
C      13.52      18.05       1.31
C      11.22      18.66       1.12
C      11.19      19.05       2.49
C      12.38      18.92       3.24
C      10.13      18.94       0.29
C       9.14      -7.22      43.40
C       8.02      -6.47      43.82
C       8.02      -6.08      45.19
C       9.02      19.67       0.80
C       8.97      20.00       2.18
C      10.04      19.67       3.03
C      13.61      19.75      28.81
C      13.52      18.85      29.90
C      11.22      18.38      29.47
C      11.19      19.37      28.46
C      12.37      20.08      28.19
C      10.12      17.52      29.65
C       9.14      15.64      30.75
C       8.02      15.63      29.88
C       8.02      16.62      28.86
C       9.02      17.60      28.76
C       8.97      18.62      27.78
C      10.04      19.52      27.65
C      16.32      38.17      12.41
C      17.38      38.12      11.47
C      16.35      36.38      10.22
C      15.25      36.34      11.11
C      15.26      37.24      12.20
C      16.38      35.57       9.08
C      17.48      35.02       7.06
C      16.42      34.19       6.61
C      15.35      34.02       7.54
C      15.30      34.71       8.77
C      14.21      34.63       9.68
C      14.19      35.43      10.84
C      16.32      18.41       6.93
C      17.38      17.62       7.44
C      16.35      17.40       9.58
C      15.25      18.19       9.17
C      15.26      18.69       7.84
C      16.38      16.82      10.85
C      17.48      15.34      12.34
C      16.42      15.37      13.28
C      15.35      16.26      12.97
C      15.30      16.98      11.75
C      14.21      17.81      11.37
C      14.19      18.41      10.09
C      16.32      23.54      26.79
C      17.38      24.38      27.21
C      16.35      26.33      26.33
C      15.25      25.58      25.85
C      15.26      24.19      26.09
C      16.38      27.73      26.20
C      17.48      29.75      26.73
C      16.42      30.55      26.24
C      15.35      29.84      25.63
C      15.30      28.42      25.61
C      14.21      27.68      25.09
C      14.19      26.27      25.20
C       5.54     -10.91      33.44
C       6.60     -10.86      34.38
C       5.58      -9.12      35.63
C       4.47      -9.08      34.74
C       4.49      -9.97      33.65
C       5.60      -8.31      36.77
C       6.71      -7.75      38.79
C       5.64      -6.92      39.24
C       4.57      -6.75      38.31
C       4.52      -7.45      37.08
C       3.44      -7.36      36.17
C       3.42      -8.17      35.01
C       5.54       8.86      38.92
C       6.61       9.64      38.41
C       5.58       9.86      36.27
C       4.47       9.07      36.68
C       4.49       8.57      38.01
C       5.60      10.45      35.00
C       6.71      11.92      33.51
C       5.64      11.89      32.57
C       4.57      11.00      32.88
C       4.52      10.28      34.10
C       3.44       9.45      34.48
C       3.42       8.85      35.76
C       5.54       3.72      19.06
C       6.61       2.89      18.64
C       5.58       0.93      19.52
C       4.48       1.68      19.99
C       4.49       3.07      19.76
C       5.60      -0.46      19.64
C       6.71      -2.49      19.12
C       5.65      -3.29      19.61
C       4.58      -2.58      20.22
C       4.52      -1.16      20.24
C       3.44      -0.42      20.76
C       3.42       1.00      20.65
H      14.15      39.47      13.38
H      15.10      40.68      12.57
H      16.27      42.54      13.90
H      16.16      42.56      15.67
H      17.62      40.69      12.75
H      18.43      39.45      13.69
H      17.41      40.87      17.06
H      18.30      39.54      16.33
H      14.77      40.84      16.89
H      14.02      39.49      16.07
H      17.13      37.70      15.00
H      15.37      37.68      14.95
H      14.15      18.60       5.32
H      15.10      17.28       4.68
H      16.27      17.51       2.40
H      16.17      19.03       1.50
H      17.62      17.43       4.58
H      18.43      18.87       5.19
H      17.42      21.08       2.27
H      18.30      21.11       3.79
H      14.77      20.95       2.38
H      14.02      20.91       3.96
H      17.13      20.88       6.04
H      15.37      20.84       6.09
H      14.15      22.05      27.43
H      15.10      22.15      28.89
H      16.27      20.06      29.83
H      16.16      18.53      28.96
H      17.62      21.99      28.81
H      18.43      21.80      27.26
H      17.41      18.17      26.81
H      18.30      19.46      26.01
H      14.77      18.33      26.86
H      14.02      19.72      26.11
H      17.13      21.53      25.09
H      15.37      21.59      25.10
H       3.37     -12.20      32.47
H       4.32     -13.42      33.28
H       5.50     -15.28      31.95
H       5.39     -15.30      30.18
H       6.84     -13.43      33.10
H       7.66     -12.19      32.17
H       6.64     -13.61      28.79
H       7.52     -12.28      29.52
H       4.00     -13.57      28.96
H       3.25     -12.23      29.78
H       6.35     -10.44      30.85
H       4.60     -10.42      30.90
H       3.37       8.66      40.53
H       4.32       9.98      41.18
H       5.50       9.75      43.45
H       5.39       8.23      44.35
H       6.84       9.83      41.27
H       7.66       8.40      40.66
H       6.64       6.19      43.58
H       7.52       6.15      42.06
H       4.00       6.31      43.47
H       3.24       6.35      41.89
H       6.35       6.38      39.81
H       4.60       6.42      39.76
H       3.37       5.21      18.42
H       4.32       5.12      16.96
H       5.50       7.20      16.02
H       5.39       8.74      16.89
H       6.84       5.27      17.04
H       7.66       5.46      18.59
H       6.64       9.09      19.05
H       7.52       7.80      19.84
H       4.00       8.94      18.99
H       3.24       7.55      19.75
H       6.35       5.73      20.76
H       4.60       5.67      20.75
H       7.77      13.12      31.18
H       6.93      14.35      32.14
H       5.54      16.08      31.07
H       5.49      16.24      29.35
H       4.30      14.29      32.26
H       3.41      13.06      31.37
H       4.14      14.27      27.92
H       3.35      13.02      28.85
H       6.77      14.38      27.83
H       7.70      13.15      28.66
H       4.73      11.24      30.04
H       6.49      11.29      30.00
H       7.77      -6.34      40.99
H       6.93      -7.78      41.58
H       5.54      -7.72      43.62
H       5.49      -6.31      44.62
H       4.30      -7.86      41.47
H       3.41      -6.47      40.85
H       4.14      -4.09      43.63
H       3.36      -4.27      42.08
H       6.77      -4.06      43.76
H       7.70      -4.17      42.28
H       4.74      -4.41      39.94
H       6.49      -4.40      40.00
H       7.77      -5.11      19.24
H       6.93      -4.90      17.70
H       5.54      -6.69      16.74
H       5.49      -8.26      17.46
H       4.30      -4.76      17.69
H       3.41      -4.91      19.20
H       4.14      -8.51      19.87
H       3.36      -7.08      20.49
H       6.77      -8.64      19.82
H       7.70      -7.31      20.47
H       4.74      -5.16      21.44
H       6.50      -5.21      21.41
H      18.55      14.15      14.67
H      17.70      12.92      13.71
H      16.31      11.18      14.78
H      16.26      11.02      16.50
H      15.07      12.97      13.59
H      14.19      14.21      14.48
H      14.91      12.99      17.93
H      14.13      14.24      17.00
H      17.54      12.88      18.02
H      18.47      14.11      17.19
H      15.51      16.02      15.81
H      17.27      15.97      15.85
H      18.55      33.60       4.86
H      17.70      35.04       4.27
H      16.31      34.98       2.23
H      16.26      33.57       1.23
H      15.07      35.12       4.38
H      14.19      33.73       5.01
H      14.91      31.36       2.22
H      14.13      31.53       3.78
H      17.54      31.33       2.09
H      18.47      31.43       3.57
H      15.51      31.67       5.91
H      17.27      31.66       5.85
H      18.55      32.37      26.61
H      17.70      32.16      28.15
H      16.31      33.95      29.11
H      16.26      35.52      28.39
H      15.07      32.02      28.16
H      14.19      32.17      26.65
H      14.91      35.77      25.98
H      14.13      34.34      25.36
H      17.54      35.90      26.03
H      18.47      34.57      25.38
H      15.51      32.42      24.41
H      17.27      32.48      24.44
H      16.17      37.03      24.59
H      16.38      33.42      22.41
H      15.97      40.25      18.75
H      16.23      36.50      16.86
H      16.80     -11.26      21.26
H      16.91     -12.71      23.88
H      16.17      29.52       1.83
H      16.38      29.43       6.04
H      15.98      22.85       1.96
H      16.23      23.09       6.16
H      16.81      24.63       0.03
H      16.91       1.49      45.26
H      16.17      13.57      19.71
H      16.38      17.26      17.68
H      15.97      17.01      25.42
H      16.23      20.53      23.12
H      16.80      14.45      24.85
H      16.90      12.90      22.28
H       5.40      -9.76      21.26
H       5.61      -6.16      23.44
H       5.20     -12.99      27.10
H       5.46      -9.23      28.99
H       6.03     -13.77      24.59
H       6.13     -12.32      21.97
H       5.40      -2.26      44.02
H       5.60      -2.17      39.81
H       5.20       4.41      43.89
H       5.46       4.17      39.69
H       6.03      28.78       0.54
H       6.13      25.78       0.59
H       5.39      13.69      26.14
H       5.60      10.00      28.17
H       5.20      10.25      20.43
H       5.46       6.73      22.73
H       6.03      12.82      21.00
H       6.13      14.36      23.57
H      20.07      40.13      14.97
H      18.08      -8.46      15.14
H       3.69      -9.36      17.81
H       1.83      -5.60      17.49
H       2.88      40.40      17.60
H       0.60      39.17      16.31
H      20.07      19.64       3.96
H      18.08      17.93       0.66
H       3.69      20.70       0.11
H       1.83      -7.61      42.30
H       2.88      21.78       2.40
H       0.60      21.28       4.12
H      20.07      20.35      27.21
H      18.08      18.34      30.33
H       3.69      16.49      28.21
H       1.83      14.88      31.63
H       2.88      17.93      26.13
H       0.60      19.67      25.71
H       9.29     -12.87      30.88
H       7.31     -16.57      30.71
H      14.46     -15.67      28.04
H      12.60      32.86      28.36
H      13.65     -13.14      28.25
H      11.37     -11.91      29.54
H       9.29       7.62      41.89
H       7.31       9.33      45.19
H      14.46      32.71       0.45
H      12.60      34.87       3.55
H      13.65       5.48      43.45
H      11.37       5.98      41.73
H       9.29       6.92      18.64
H       7.31       8.92      15.52
H      14.46      10.78      17.64
H      12.60      12.38      14.22
H      13.65       9.33      19.72
H      11.37       7.59      20.14
H       1.60     -12.84      31.29
H       3.57     -16.55      30.95
H      18.05     -15.55      28.15
H      20.01      33.01      28.37
H      18.85     -13.01      28.53
H      21.06     -11.83      29.97
H       1.60       7.96      41.66
H       3.57       9.53      45.04
H      18.05      32.75       0.30
H      20.01      34.80       3.42
H      18.85       5.66      43.20
H      21.07       6.32      41.45
H       1.60       6.55      18.46
H       3.57       8.70      15.42
H      18.05      10.63      17.68
H      20.01      12.30      14.35
H      18.85       9.03      19.69
H      21.06       7.18      20.00
H      12.37      40.10      14.56
H      14.35      -8.48      14.90
H       7.28      -9.48      17.70
H       9.24      -5.75      17.48
H       8.08      40.27      17.32
H      10.29      39.09      15.88
H      12.37      19.30       4.18
H      14.35      17.74       0.80
H       7.28      20.66       0.26
H       9.24      -7.53      42.43
H       8.08      21.60       2.65
H      10.29      20.95       4.40
H      12.37      20.72      27.39
H      14.35      18.57      30.43
H       7.28      16.63      28.17
H       9.24      14.96      31.50
H       8.08      18.23      26.16
H      10.29      20.08      25.85
H      14.47      37.22      12.84
H      18.18      38.74      11.52
H      14.56      33.41       7.28
H      18.32      35.20       6.50
H      13.35      32.95       9.81
H      13.30      34.71      12.34
H      14.47      19.25       7.54
H      18.18      17.34       6.89
H      14.56      16.34      13.61
H      18.32      14.77      12.46
H      13.35      18.76      12.75
H      13.30      20.07       9.96
H      14.47      23.64      25.75
H      18.18      24.03      27.73
H      14.56      30.36      25.23
H      18.32      30.15      27.17
H      13.35      28.40      23.57
H      13.30      25.33      23.83
H       3.69      -9.96      33.01
H       7.41     -11.48      34.33
H       3.79      -6.15      38.57
H       7.54      -7.93      39.35
H       2.58      -5.69      36.04
H       2.53      -7.45      33.51
H       3.69       8.01      38.32
H       7.41       9.92      38.96
H       3.79      10.92      32.24
H       7.54      12.49      33.39
H       2.58       8.50      33.10
H       2.53       7.19      35.89
H       3.69       3.62      20.09
H       7.41       3.23      18.12
H       3.79      -3.10      20.62
H       7.54      -2.88      18.68
H       2.58      -1.14      22.28
H       2.53       1.93      22.02
N      16.27      35.15      21.34
N      16.19      36.50      18.89
N      16.27      27.65       5.09
N      16.19      24.84       5.14
N      16.27      17.32      19.71
N      16.19      18.77      22.11
N       5.50      -7.88      24.51
N       5.42      -9.24      26.97
N       5.50      -0.38      40.76
N       5.42       2.42      40.71
N       5.50       9.94      26.14
N       5.42       8.50      23.74
N      20.06      -8.46      15.61
N       0.84      -7.21      16.69
N      20.06      18.34       0.44
N       0.84      -7.50      44.09
N      20.06      17.94      30.09
N       0.84      16.38      30.64
N       9.29     -16.57      30.24
N      11.61      34.47      29.16
N       9.29      35.07       0.13
N      11.61      34.76       1.76
N       9.29       9.32      15.76
N      11.61      10.88      15.21
N       1.60     -16.51      30.50
N      20.91      34.59      29.28
N       1.60       9.12      45.24
N      20.91      34.80       1.59
N       1.60       9.07      15.68
N      20.91      10.72      15.26
N      12.37      -8.52      15.35
N      10.14      -7.33      16.57
N      12.37      18.15       0.61
N      10.14      -7.54      44.26
N      12.37      18.19      30.17
N      10.14      16.54      30.59
N      17.36      37.26      10.44
N      17.42      35.67       8.23
N      17.36      17.15       8.71
N      17.42      16.03      11.19
N      17.36      25.70      26.98
N      17.42      28.41      26.72
N       6.58      -9.99      35.41
N       6.65      -8.41      37.62
N       6.59      10.11      37.14
N       6.65      11.23      34.67
N       6.59       1.56      18.87
N       6.65      -1.15      19.13
O      15.89     -11.61      21.25
O      15.98     -12.92      23.63
O      15.89      24.80       0.34
O      15.98      27.52       0.28
O      15.89      14.63      24.54
O      15.98      13.23      22.22
O       5.12     -13.42      24.60
O       5.21     -12.11      22.22
O       5.11      28.60       0.23
O       5.20      25.89       0.28
O       5.11      12.64      21.31
O       5.20      14.04      23.63
O       3.03      40.79      16.71
O       0.90      39.64      15.50
O       3.04      20.81       2.51
O       0.91      20.34       4.11
O       3.03      18.51      26.91
O       0.90      20.13      26.52
O      13.81     -13.53      29.14
O      11.68     -12.38      30.35
O      13.81       6.45      43.34
O      11.68       6.92      41.74
O      13.81       8.76      18.94
O      11.68       7.14      19.33
O      18.66     -13.44      29.39
O      20.74     -12.34      30.74
O      18.66       6.62      43.14
O      20.74       7.24      41.51
O      18.66       8.50      18.89
O      20.74       6.77      19.16
O       7.89      40.71      16.46
O       9.97      39.60      15.10
O       7.89      20.64       2.71
O       9.97      20.02       4.34
O       7.89      18.76      26.96
O       9.97      20.49      26.68
O      13.14      33.83       9.41
O      13.10      35.38      11.66
O      13.14      17.98      12.19
O      13.10      19.14       9.72
O      13.14      28.31      24.53
O      13.10      25.59      24.75
O       2.37      -6.57      36.44
O       2.32      -8.12      34.19
O       2.37       9.29      33.66
O       2.32       8.12      36.13
O       2.37      -1.05      21.32
O       2.33       1.67      21.10
