29

H       3.35       6.41       4.17
H       3.42       7.24       6.28
H       7.04       5.58       6.85
H       7.01       4.82       4.67
H       4.43       9.00       9.30
H       0.99       7.48      10.67
H       3.53       5.15       8.63
C       5.13       4.93       2.81
C       5.16       5.48       4.15
C       4.10       6.24       4.70
C       4.13       6.73       5.96
C       5.23       6.46       6.78
C       6.30       5.75       6.30
C       6.28       5.28       5.00
C       4.11       7.08       8.81
C       3.83       8.29       9.39
C       2.66       8.44      10.11
C       1.80       7.36      10.23
C       2.12       6.12       9.70
C       3.30       5.98       8.98
C       2.33       9.74      10.73
C       1.25       4.96       9.96
O       6.03       4.15       2.41
O       4.19       5.27       2.03
O      -0.01       5.09       9.93
O       1.79       3.84      10.24
O       1.16       9.88      11.20
O       3.20      10.63      10.78
O       5.32       6.95       8.08
