15

C       5.36      10.58      13.57
Zn       5.77      12.48      11.07
C       2.86      11.36      10.78
C       5.36      14.38       8.56
C       2.86      13.60      11.35
C       6.18      10.58       8.56
N       5.71      14.00      12.56
C       8.67      11.36      11.35
N       5.83      10.95      12.56
N       5.83      14.00       9.57
N       5.71      10.95       9.57
N       7.98      12.48      11.07
N       3.56      12.48      11.07
C       6.18      14.38      13.57
C       8.67      13.60      10.78
