15

O       2.07       5.51       3.34
C      -0.48       4.84       0.48
Gd       2.39       4.11       1.55
C       4.86       4.59      -0.43
O       0.04       4.23       1.45
O       4.21       3.60      -0.01
P       2.54       6.71       4.15
P       1.18       1.48       3.52
N       1.99       1.02       0.22
C       0.48       5.61      -0.48
C       4.89       5.86       0.43
O       1.72       5.56      -0.20
O       4.23       5.78       1.53
O       2.29       2.42       3.07
O       1.67       2.31       0.14
