16

O      -0.35       6.87      13.56
O      -1.60       8.41      12.57
H      -3.33       3.27       9.67
H      -3.53       5.65       8.95
H      -2.66       7.47      10.42
H      -1.21       4.52      13.20
C      -1.27       7.17      12.74
C      -2.17       2.35      11.94
C      -2.28       3.76      11.50
C      -2.93       4.07      10.29
C      -3.05       5.41       9.89
C      -2.55       6.43      10.71
C      -1.89       6.11      11.90
C      -1.74       4.77      12.29
O      -2.71       1.40      11.27
O      -1.55       2.04      13.02
