16

C      -1.11       2.98       6.92
C      -0.99       1.64       7.32
C      -1.49       0.62       6.50
C      -2.15       0.94       5.31
H      -0.71       3.78       7.53
C      -2.30       2.28       4.92
H      -0.51       1.40       8.26
H      -1.38      -0.42       6.79
C      -2.78      -0.12       4.47
H      -2.83       2.52       4.00
O      -1.33       5.64       5.94
O      -2.49       5.01       4.19
O      -3.69       0.18       3.65
O      -2.44      -1.36       4.64
C      -1.87       4.70       5.26
C      -1.76       3.29       5.71
