24

H       8.61       5.66       7.85
H      12.37       4.19       6.29
H      13.49       5.23       8.05
C       9.40       8.99      11.11
C      10.80       8.79      11.03
C      11.32       9.79      11.88
C      11.53       7.81      10.24
C      12.92       7.66      10.37
C      10.86       7.01       9.29
C      13.61       6.73       9.58
N       9.15       4.37       6.26
N      10.34       3.90       5.77
H       8.59       8.45      10.64
H      12.34      10.02      12.13
H      13.48       8.26      11.08
H       9.79       7.15       9.15
H      14.68       6.62       9.70
N       9.12      10.03      11.93
N      10.31      10.53      12.40
C       9.42       5.19       7.30
C      10.81       5.27       7.51
C      11.34       4.43       6.52
C      11.54       6.07       8.50
C      12.93       5.94       8.66
