24

C      12.39      11.13      15.45
C      13.78      11.04      15.65
H      11.58       7.86      18.79
H      15.34       6.29      20.25
H      16.46       8.06      19.22
C      14.51      10.24      16.64
C      15.90      10.37      16.79
C      14.31      11.88      14.65
C      13.84       9.30      17.44
C      16.59       9.59      17.72
N      12.12       6.28      20.08
N      13.31       5.77      20.54
H      11.58      10.66      16.00
H      15.34      12.12      14.42
H      16.46      11.08      16.19
H      12.77       9.17      17.30
H      17.66       9.70      17.83
N      12.12      11.94      14.41
N      13.31      12.41      13.90
C      12.39       7.32      19.26
C      13.78       7.52      19.18
C      14.31       6.52      20.01
C      14.51       8.51      18.38
C      15.90       8.66      18.50
