24

H      15.39       7.86       5.65
H      11.64       6.28       4.16
H      10.50       8.04       5.22
C      13.12       9.29       7.00
C      10.37       9.57       6.71
H      10.49      11.07       8.24
H      15.37      10.64       8.44
H      11.61      12.11      10.01
N      14.86       6.27       4.36
N      13.67       5.77       3.89
N      14.84      11.93      10.03
N      13.64      12.40      10.52
H      14.19       9.15       7.14
H       9.30       9.68       6.59
C      14.58       7.31       5.18
C      13.19       7.51       5.26
C      12.67       6.51       4.41
C      12.45       8.49       6.06
C      11.06       8.64       5.93
C      14.56      11.11       8.99
C      13.17      11.03       8.78
C      12.64      11.87       9.77
C      12.45      10.23       7.79
C      11.05      10.36       7.63
