24

H      12.40       5.64       0.29
H       8.64       4.18       1.87
H       7.52       5.22       0.10
C      10.14       7.00      -1.15
C       7.39       6.72      -1.43
H      12.40       8.44      -2.50
H       7.52       8.25      -2.93
H       8.64      10.01      -3.96
N      11.87       4.36       1.89
N      10.67       3.90       2.39
N      11.87      10.03      -3.79
N      10.67      10.53      -4.25
H      11.21       7.14      -1.01
H       6.32       6.60      -1.54
C      11.59       5.18       0.84
C      10.20       5.26       0.64
C       9.67       4.42       1.64
C       9.47       6.06      -0.35
C       8.08       5.93      -0.50
C      11.59       8.99      -2.97
C      10.20       8.78      -2.89
C       9.67       9.78      -3.72
C       9.47       7.79      -2.09
C       8.08       7.64      -2.21
