15

O       3.95       7.50      21.97
O       5.84       8.72      21.59
N       6.75       6.42      18.27
C       3.54       4.44      17.89
H       3.27       6.13      19.98
H       7.24       7.78      19.76
C       4.99       7.83      21.29
C       5.22       7.06      20.02
C       5.79       5.60      17.77
C       4.53       5.47      18.35
C       4.24       6.22      19.49
C       6.45       7.15      19.37
H       6.06       5.00      16.91
O       2.33       4.64      18.13
O       4.04       3.39      17.33
