52

N       6.80       9.80       6.89
N       8.65      11.72       8.52
H      10.03      11.99       3.60
H      11.44      10.99       3.25
H      10.25       9.15       4.69
H       9.08      13.72       8.02
H       9.95      13.13       9.47
H      11.26      11.55       8.05
C      11.37      11.63       5.27
C      10.65      11.16       3.99
C       9.79       9.88       4.03
H      12.84      10.07       5.06
C      10.80      12.45       7.61
H      11.68      13.63       4.44
C      12.23      10.51       5.87
C      12.27      12.82       4.89
C       9.67       9.28       2.61
H       9.10       8.34       2.62
H      10.66       9.06       2.21
H       9.16       9.98       1.94
H      12.92      10.88       6.63
H      13.05      12.50       4.18
H      12.78      13.23       5.77
H       8.00      13.58      10.49
C       5.76      10.26       7.87
C       6.48      10.74       9.15
C       7.32      12.03       9.11
C       7.52       9.04       4.68
C       6.32       9.44       5.54
C       4.89      11.37       7.28
C       4.86       9.06       8.26
C       7.44      12.64      10.51
H       4.20      10.99       6.51
H       5.46       8.25       8.71
H      11.54      13.26       7.60
C       9.60      12.85       8.46
H       7.10       9.92       9.55
H       5.69      10.89       9.90
H      11.63       9.72       6.32
N      10.33      12.10       6.25
H       7.17       8.76       3.68
H       6.85      12.75       8.43
N       8.46      10.19       4.62
H       4.27      11.80       8.07
H       5.48      12.16       6.82
H       8.05       8.19       5.13
H       5.84      10.32       5.09
H       4.09       9.37       8.97
H       4.35       8.65       7.38
H       5.59       8.62       5.55
H       6.44      12.87      10.91
H       7.96      11.96      11.19
