52

H      -0.34       2.17       2.68
H       0.82       3.48       2.52
H       0.75       2.88      -0.08
H       0.91      -2.47       1.76
H       2.44      -2.88       0.93
N       1.23       0.21       1.70
H       2.87      -0.99       2.42
H       2.98      -0.45       0.73
H       2.48       2.46       3.98
H       1.22       1.23       4.27
H       2.88       0.74       3.80
H       2.67       2.04       0.24
H       3.08       3.11       1.60
H       3.76       1.49       1.52
N      -1.00       1.80       0.24
H      -1.60       4.29       1.31
H      -0.01       5.03       0.98
H      -1.06       4.55      -0.36
C      -1.69      -1.65      -2.21
C      -0.48      -2.61      -2.10
C       0.05      -2.97      -0.70
H       0.35      -2.20      -2.71
C      -1.71       2.02      -1.04
H      -0.78      -3.00       0.01
H      -0.98       2.38      -1.77
H      -2.50       2.79      -0.93
H      -0.78      -3.54      -2.61
C      -2.34       0.71      -1.51
H      -3.03       0.35      -0.75
H      -2.91       0.90      -2.43
C      -2.06      -1.53      -3.70
C       0.74      -4.35      -0.72
C      -2.88      -2.19      -1.41
H      -2.43      -2.49      -4.08
H      -1.19      -1.24      -4.30
H      -2.86      -0.80      -3.86
H      -2.71      -2.18      -0.33
H      -3.08      -3.22      -1.72
H      -3.78      -1.61      -1.61
H       1.63      -4.33      -1.36
H       0.04      -5.11      -1.09
H       1.05      -4.65       0.29
C       1.68       1.57       2.15
C       0.48       2.55       2.05
C      -0.07       2.88       0.65
C       1.66      -2.12       1.03
C       2.29      -0.81       1.50
C       2.09       1.49       3.64
C       2.86       2.07       1.32
C      -0.73       4.27       0.65
N      -1.27      -0.29      -1.71
N       0.96      -1.89      -0.25
