26

H       6.04       2.26      10.50
H       7.39       0.93      12.89
H       8.05       0.97      11.27
H       5.98      -0.17      10.42
H       4.31      -1.11      11.90
H       3.23       1.03      12.59
H       3.90       1.05      10.97
H       4.40       3.17      12.02
C       6.33       2.26      11.57
C       7.11       0.97      11.84
C       6.27      -0.26      11.49
C       4.94      -0.29      12.27
C       4.17       1.03      12.03
C       4.99       2.30      12.35
C       7.14       3.52      11.73
C       5.16       2.50      13.86
C       7.08      -1.56      11.55
C       5.11      -0.60      13.77
O       6.54       4.65      11.59
O       8.41       3.51      11.86
O       8.31      -1.57      11.46
O       6.31      -2.63      11.59
O       4.10      -0.48      14.51
O       6.28      -0.96      14.17
O       4.16       2.32      14.60
O       6.34       2.84      14.27
