96

Tb       7.86       8.33      14.64
Tb      -0.49       9.50       7.21
Tb      -0.74       1.64       0.34
Tb       7.62       0.49       7.78
H       2.01       1.41      13.20
H       4.88       1.68       9.99
H      -3.42      10.11      10.81
H       3.23       3.26      13.88
H       1.97       3.64      12.68
H       3.12       5.62      13.85
H       4.60       5.20      12.93
H       1.80       7.36      10.05
H       9.72      -1.09      11.50
H       4.57       7.38      13.37
H       5.12       8.56       1.78
H       2.24       8.29       4.99
H      10.55      -0.14       4.17
H       3.89       6.71       1.10
H       5.16       6.33       2.29
H       4.00       4.35       1.13
H       2.53       4.77       2.05
H       5.32       2.62       4.93
H      -2.59      11.06       3.47
H       2.56       2.59       1.60
C       1.41      -1.17      12.92
C       2.37      -0.40      12.10
C       2.57       0.96      12.39
C       3.50       1.70      11.65
C       4.19       1.09      10.58
C       3.95      -0.25      10.28
C       3.06      -1.02      11.05
C       4.60      -0.92       9.13
C       3.04       3.71      12.89
C       3.50       5.15      12.92
C       3.15       7.19      11.74
C       2.44       7.89      10.75
C       2.55       9.28      10.66
C       3.35      10.00      11.56
C       4.06       9.30      12.53
C       3.98       7.89      12.62
C       4.89      10.04      13.51
C       1.78      10.00       9.61
C       5.72      11.14       2.06
C       4.75      10.37       2.88
C       4.55       9.01       2.59
C       3.62       8.27       3.33
C       2.94       8.88       4.39
C       3.18      10.22       4.70
C       4.07      10.99       3.93
C       2.52      10.89       5.85
C       4.08       6.26       2.09
C       3.62       4.83       2.05
C       3.97       2.78       3.24
C       4.68       2.08       4.23
C       4.57       0.69       4.32
C       3.78      -0.03       3.42
C       3.07       0.68       2.44
C       3.14       2.08       2.36
C       2.23      -0.06       1.47
C       5.35      -0.03       5.37
N       7.40       5.61      14.85
N      -0.42       6.73       7.45
N      -0.28       4.37       0.13
N       7.55       3.24       7.52
O       8.64       8.32       0.16
O       6.67       6.36      14.06
O       7.09       6.74       0.32
O      -4.78       9.73      13.04
O       0.49      -0.48      13.50
O       3.80       3.02      11.88
O       2.96       5.84      11.78
O       5.92       9.45      14.05
O      10.92      -0.94      13.84
O       8.39      -0.95       9.36
O       0.85       9.35       9.02
O      -2.17      10.14       8.71
O       5.64      -0.39       8.56
O      -1.48       7.42       7.77
O       0.42       7.37       6.68
O      -0.21       5.61       7.87
O      -1.51       1.65      14.81
O       0.46       3.62       0.91
O       0.04       3.23      14.66
O      11.90       0.24       1.94
O       6.64      10.45       1.48
O       3.32       6.95       3.10
O       4.17       4.14       3.20
O       1.21       0.52       0.93
O      -3.80      10.91       1.14
O      -1.26      10.92       5.61
O       6.27       0.62       5.96
O       9.29      -0.17       6.27
O       1.48      10.37       6.42
O       8.61       2.55       7.21
O       6.71       2.61       8.30
O       7.34       4.36       7.10
