16

C       1.74       6.90       7.35
C       1.74       7.72       6.10
O       2.89      10.06       1.83
C       2.96       8.08       5.50
H       3.88       7.80       5.98
C       0.53       8.78       4.29
C       1.74       9.78       2.33
C       1.74       9.11       3.67
C       0.53       8.08       5.50
H      -0.40       9.05       3.80
C       2.96       8.78       4.29
O       2.89       6.58       7.82
H      -0.40       7.80       5.98
O       0.59      10.01       1.82
H       3.89       9.05       3.80
O       0.60       6.58       7.82
