16

O       2.90      12.56       0.40
O       2.89      19.46       0.57
C       0.53      15.31       0.51
C       0.53      16.70       0.57
C       1.75      13.12       0.43
C       1.74      14.62       0.49
C       1.74      17.40       0.60
C       1.74      18.91       0.60
H      -0.40      14.75       0.47
H      -0.40      17.27       0.57
C       2.96      15.32       0.51
C       2.96      16.71       0.57
O       0.59      19.46       0.58
O       0.60      12.55       0.44
H       3.88      14.76       0.47
H       3.88      17.27       0.57
