10

O      -1.23       7.87       1.06
O      -2.96       9.07       0.45
H      -1.61      11.03       1.03
H       0.90       9.56       1.03
O       0.52      12.73       1.06
O       2.25      11.53       0.45
C      -1.76       8.98       0.81
C      -1.01      10.27       0.90
C       1.05      11.62       0.81
C       0.30      10.33       0.90
