352

Ni      -0.21      18.13       5.16
Ni       2.46      -0.57       4.46
Ni       0.43       0.98      14.14
Ni      -0.95       4.01      13.63
Ni      -4.41       8.53      22.81
Ni      -3.06       5.48      23.39
Ni       2.28      -2.96      22.17
Ni      -0.40      15.74      22.87
Ni       1.63      14.19      13.19
Ni       3.01      11.17      13.70
Ni       6.47       6.64       4.52
Ni       5.12       9.69       3.94
H       5.20      19.89       5.39
H      -3.58      16.17       5.18
H       3.05      16.18       5.13
H       6.37      11.53       6.06
H       6.51      14.00       6.53
H       3.80      14.62       3.24
H       3.81      12.14       2.89
H       1.87      11.63       4.28
H      -2.42      11.61       4.63
H      -0.29       7.94       3.92
H       1.16      16.15       3.50
H       1.22      13.67       3.15
H      -1.75      13.31       6.26
H      -1.70      15.80       6.47
H       0.50      17.01       0.91
H      -6.40      11.28      24.58
H      -2.32      20.26       0.72
H       0.38      12.82      23.30
H       2.10      11.53      24.59
H      -7.40      15.31      26.11
H       5.86      -5.27      24.74
H       0.54       2.21       6.12
H      -1.23       3.54       9.82
H       1.95       0.64       9.85
H      -1.69       5.72       4.26
H      -0.03       4.31       5.50
H       7.87       3.66       8.50
H       6.36       5.11       7.15
H       3.69      -1.03      14.37
H       7.99      -0.95      13.95
H       5.80       2.70      14.54
H       0.21      16.15      14.92
H       4.27      -3.08      15.36
H       7.39      -2.68      12.40
H       3.19      16.54      12.08
H      -1.41       5.26      19.04
H      -4.57       8.17      18.99
H      -2.79       6.83      15.30
H       2.97       9.66      16.34
H       4.52       8.26      17.70
H      -3.45       8.87      14.62
H       5.80      10.22      13.39
H      -5.28       3.94      24.79
H      -5.94       3.29      27.12
H       0.29      10.60       1.71
H       2.32      11.97       1.20
H      -1.97       6.02      26.14
H       0.95      20.31       5.45
H       3.69      -1.14       6.51
H       1.58       3.11      14.68
H       0.23       3.35      15.69
H      -3.12       8.00      24.90
H      -1.87       7.69      23.79
H      -3.14      -4.72      21.94
H       5.65      -1.00      22.15
H      -0.99      -1.01      22.20
H      -4.31       3.64      21.27
H      -4.45       1.17      20.80
H      -1.74       0.55      24.09
H      -1.75       3.04      24.44
H       0.19       3.55      23.05
H       4.49       3.56      22.70
H       2.35       7.23      23.41
H       0.91      -0.98      23.83
H       0.84       1.50      24.18
H       3.81       1.86      21.07
H       3.76      -0.63      20.86
H       1.57      -1.84      26.42
H       8.46       3.89       2.75
H       4.38      -5.09      26.61
H       1.69       2.36       4.03
H      -0.03       3.64       2.74
H       9.46      -0.13       1.22
H      -3.80      20.44       2.59
H       1.52      12.96      21.21
H       3.29      11.63      17.51
H       0.12      14.53      17.48
H       3.75       9.46      23.07
H       2.10      10.86      21.83
H      -5.80      11.51      18.83
H      -4.29      10.06      20.18
H      -1.63      16.20      12.97
H      -5.92      16.13      13.38
H      -3.73      12.47      12.79
H       1.85      -0.98      12.41
H      -2.20      18.25      11.97
H      -5.32      17.85      14.93
H      -1.13      -1.37      15.25
H       3.47       9.91       8.29
H       6.63       7.00       8.34
H       4.86       8.34      12.03
H      -0.90       5.52      10.99
H      -2.46       6.91       9.63
H       5.51       6.31      12.71
H      -3.74       4.95      13.94
H       7.34      11.23       2.54
H       8.00      11.89       0.21
H       1.78       4.57      25.62
H      -0.26       3.20      26.13
H       4.04       9.15       1.19
H       1.11      -5.14      21.88
H      -1.63      16.31      20.82
H       0.48      12.06      12.65
H       1.83      11.83      11.64
H       5.18       7.17       2.43
H       3.93       7.49       3.54
C       3.99      18.10       5.29
C       5.20      18.80       5.33
C      -4.53      18.09       5.32
C       6.41      16.69       5.23
C       5.20      15.99       5.12
C       4.00      16.71       5.16
C       2.64      18.77       5.38
C      -3.20      18.78       5.31
C       5.84      12.26       5.45
C       5.91      13.63       5.71
C       5.18      14.53       4.91
C       4.39      13.98       3.89
C       4.39      12.60       3.68
C       0.92       9.72       4.06
C       0.92      11.11       4.27
C      -0.27      11.81       4.49
C      -1.48      11.09       4.49
C      -1.49       9.71       4.28
C      -0.29       9.02       4.08
C       0.55      15.47       4.10
C       0.58      14.10       3.91
C      -0.26      13.27       4.68
C      -1.10      13.90       5.62
C      -1.06      15.28       5.75
C       2.25       9.06       3.77
C       8.11       9.02       4.28
C      -0.89      18.68       0.95
C      -0.22      17.60       0.34
C      -5.26      10.79      26.32
C      -6.23      11.53      25.63
C      -6.93      12.58      26.23
C      -1.81      19.43       0.22
C       1.10      13.32      23.94
C       2.07      12.62      24.65
C      -7.96      13.31      25.47
C      -8.09      14.71      25.52
C       1.88      15.34      24.76
C      -0.71      19.03       2.41
C      -4.52       9.72      25.55
C       1.35       1.37       7.91
C       0.48       2.21       7.21
C      -0.47       2.99       7.87
C      -0.52       2.94       9.27
C       0.36       2.11       9.99
C       1.28       1.31       9.31
C      -1.95       5.23       5.20
C      -1.04       4.44       5.89
C      -1.41       3.85       7.11
C       8.23       4.10       7.57
C       7.37       4.90       6.82
C       2.28       0.51       7.10
C       0.24       2.16      11.49
C       4.62       0.90      14.48
C       4.64      -0.50      14.34
C       5.84      -1.19      14.13
C       7.03      -0.45      14.11
C       7.03       0.94      14.28
C       5.82       1.62      14.44
C       0.87      16.83      14.38
C       0.87      18.20      14.62
C       5.83      -2.65      13.92
C       2.61      18.42      12.99
C       2.55      17.05      12.80
C       3.27       1.56      14.59
C      -2.58       1.64      14.25
C      -2.01       5.98      17.09
C      -2.07       5.93      18.49
C      -2.98       6.75      19.17
C      -3.86       7.56      18.44
C      -3.83       7.60      17.04
C      -2.87       6.83      16.38
C       3.98       9.45      16.00
C       4.86       8.68      16.75
C      -4.78       8.43      16.28
C      -4.45       8.99      15.04
C       5.56       9.76      14.34
C      -1.11       5.08      16.29
C      -3.06       6.81      20.67
C      -4.70       4.26      25.65
C      -5.06       3.90      26.95
C       0.54      10.86       0.68
C       1.66      11.64       0.40
C      -2.85       5.44      26.41
C      -1.93      -2.93      22.04
C      -3.14      -3.63      22.00
C       6.59      -2.92      22.01
C      -4.34      -1.52      22.10
C      -3.14      -0.82      22.21
C      -1.94      -1.54      22.17
C      -0.58      -3.60      21.95
C       5.26      -3.61      22.02
C      -3.77       2.91      21.88
C      -3.85       1.54      21.63
C      -3.11       0.65      22.42
C      -2.32       1.20      23.44
C      -2.32       2.57      23.65
C       1.14       5.45      23.27
C       1.14       4.07      23.06
C       2.33       3.36      22.84
C       3.54       4.08      22.84
C       3.56       5.46      23.05
C       2.35       6.16      23.25
C       1.52      -0.30      23.23
C       1.49       1.07      23.42
C       2.32       1.90      22.65
C       3.16       1.27      21.71
C       3.13      -0.11      21.58
C      -0.18       6.11      23.56
C      -6.05       6.15      23.05
C       2.95      -3.50      26.38
C       2.28      -2.43      26.99
C       7.33       4.38       1.01
C       8.29       3.64       1.70
C       8.99       2.59       1.10
C       3.88      -4.26      27.11
C       0.96       1.85       3.39
C      -0.00       2.55       2.68
C      10.03       1.86       1.86
C      10.15       0.46       1.81
C       0.19      -0.17       2.57
C       2.77      -3.86      24.92
C       6.59       5.45       1.78
C       0.71      13.80      19.42
C       1.58      12.96      20.12
C       2.54      12.18      19.46
C       2.58      12.24      18.06
C       1.71      13.06      17.34
C       0.78      13.87      18.02
C       4.01       9.94      22.13
C       3.10      10.73      21.44
C       3.47      11.32      20.22
C      -6.16      11.07      19.76
C      -5.31      10.27      20.51
C      -0.22      14.66      20.23
C       1.82      13.01      15.84
C      -2.55      14.28      12.85
C      -2.58      15.67      12.99
C      -3.78      16.36      13.20
C      -4.97      15.63      13.22
C      -4.97      14.23      13.05
C      -3.75      13.55      12.89
C       1.19      -1.66      12.95
C       1.20      -3.03      12.71
C      -3.77      17.82      13.41
C      -0.55      -3.25      14.34
C      -0.49      -1.87      14.53
C      -1.20      13.61      12.74
C       4.64      13.53      13.08
C       4.07       9.20      10.24
C       4.13       9.24       8.84
C       5.04       8.42       8.16
C       5.92       7.61       8.89
C       5.89       7.57      10.29
C       4.93       8.34      10.95
C      -1.92       5.72      11.33
C      -2.80       6.49      10.58
C       6.85       6.74      11.05
C       6.51       6.18      12.30
C      -3.50       5.41      12.99
C       3.17      10.09      11.05
C       5.12       8.36       6.66
C       6.76      10.91       1.68
C       7.12      11.27       0.38
C       1.53       4.31      26.65
C       0.40       3.54      26.93
C       4.91       9.74       0.92
N       5.10      11.75       4.44
N      -0.26      16.06       5.00
N       1.00      14.67      23.99
N       7.75       5.46       5.65
N       1.70      16.25      13.49
N       4.32       9.99      14.81
N      -3.61       5.02      25.38
N      -3.04       3.42      22.89
N       2.33      -0.89      22.33
N       1.07       0.51       3.34
N      -5.68       9.71      21.68
N       0.36      -1.08      13.85
N      -2.26       5.18      12.52
N       5.68      10.16       1.95
O       1.69      17.92       5.57
O       2.50      20.02       5.27
O      -3.18      20.04       5.12
O      -2.18      18.02       5.45
O       3.16       9.90       3.41
O       2.39       7.81       3.86
O       8.07       7.78       3.99
O       7.11       9.76       4.56
O      -1.26      20.11       2.78
O      -0.07      18.21       3.15
O      -3.78       8.88      26.12
O      -4.74       9.80      24.28
O       2.34       0.83       5.85
O       2.91      -0.44       7.64
O       0.79       1.24      12.17
O      -0.43       3.14      11.94
O       2.30       0.71      14.69
O       3.15       2.81      14.55
O      -1.56       0.87      14.23
O      -2.56       2.92      14.23
O      -1.07       5.37      15.03
O      -0.50       4.11      16.83
O      -2.55       5.87      21.35
O      -3.68       7.84      21.12
O      -0.07      20.20       5.58
O       0.55       2.99      14.76
O      -2.88       7.62      23.98
O       0.37      -2.75      21.76
O      -0.44      -4.85      22.06
O       5.24      -4.87      22.21
O       4.25      -2.85      21.88
O      -1.10       5.27      23.92
O      -0.33       7.36      23.47
O      -6.01       7.39      23.34
O      -5.05       5.41      22.77
O       3.33      -4.94      24.55
O       2.13      -3.04      24.19
O       5.84       6.29       1.21
O       6.80       5.37       3.05
O      -0.28      14.34      21.48
O      -0.85      15.61      19.69
O       1.27      13.93      15.16
O       2.49      12.03      15.39
O      -0.24      14.46      12.64
O      -1.08      12.36      12.78
O       3.62      14.30      13.10
O       4.62      12.26      13.10
O       3.14       9.80      12.30
O       2.56      11.06      10.50
O       4.61       9.30       5.98
O       5.74       7.33       6.21
O       2.13      -5.03      21.76
O       1.51      12.18      12.57
O       4.95       7.55       3.35
