150

C       5.13       4.54       6.61
C       4.70       6.12       8.47
C       0.54       9.55       0.72
C       2.95       9.37       0.80
C       2.91       8.99      18.09
C       4.89       0.36      17.87
C       4.89       0.78       0.68
C       5.17       4.59       2.77
C      -0.68       3.27      10.17
C      -0.37       4.78      15.96
C      -1.38       4.36       2.77
C       4.05       4.98      15.95
C       7.20       0.51       2.75
C       1.65       8.79      15.97
C      -1.17       4.37      10.89
C       4.35       4.94       7.80
C      -2.19       5.11      10.30
C       3.45       4.09       8.44
C      -2.57       4.88       8.97
C      -2.14       6.57      10.10
C       3.09       4.30       9.77
C       8.79       1.73      12.43
C       3.81       7.99       6.14
C       3.62       2.64       8.65
C      -2.61       6.33       8.68
C       3.20       2.86      10.09
C      -0.42       4.80      12.08
C      -1.89       3.93       8.19
C       3.63       5.36      10.50
C       7.23      -0.18      10.73
C       1.81       9.44       7.91
C       9.65       0.26      10.80
C       4.31       9.31       8.04
C      -0.18       0.07      10.19
C       5.44       9.48       8.84
C       3.02       9.48       8.65
C       8.47      -0.05      10.07
C       0.61       9.24       8.59
C       6.05      -0.17       9.96
C      -1.96       3.89       6.73
C       3.56       5.44      11.96
C      -0.56       8.89       7.90
C      -1.04       3.05       8.85
C       4.78       0.09      10.51
C      -1.80       9.17       8.44
C       3.63      -0.12       9.76
C      -0.77       4.66      17.36
C       4.78       4.78       1.38
C       4.33       6.34       9.79
C      -0.32       3.51      18.00
C       5.72       5.45       0.58
C      -0.31       3.74       0.66
C       5.52       5.14      17.91
C      -1.05       6.03       0.90
C       3.65       3.62      18.03
C      -1.13       5.78      18.18
C       3.78       4.02       0.74
C      -0.70       2.10      17.73
C       6.21       6.85       0.68
C      -0.71       2.31       0.54
C       6.00       6.56      17.87
C      -0.82       4.76       1.48
C       4.48       4.51      17.26
C       7.21       0.42       6.59
C       1.65       8.89      12.07
C       1.72       9.13      17.36
C       1.73       9.59       1.46
C       0.51       9.14      18.04
Cr       5.60       2.12       4.68
Cr       3.50       7.25      14.02
Cr       9.05       2.09       4.67
Cr       0.05       7.22      14.01
Cr       7.36       5.14       4.70
Cr       1.80       4.20      13.99
H      -0.51       2.28       8.31
H      -3.79       6.91       1.03
H       0.14       1.52      17.27
H       9.38       2.01      17.21
H       5.50       7.52       1.23
H       9.30       2.15       0.89
H       5.22       7.27      17.55
H       4.72       7.20      10.30
H       0.05       1.62       0.95
H       6.95       6.65      17.34
H       3.88       9.37       1.35
H       3.86       8.94      17.58
H       4.00      -0.11      17.40
H       5.15       1.78       1.08
H       5.21       1.32      17.41
H       3.96       0.33       1.09
H       0.08       2.64      10.58
H       5.35       6.84       8.01
H      -2.86       7.12      10.75
H       2.90       2.04       8.04
H      -3.63       6.70       8.51
H       2.22       2.40      10.34
H      -1.88       6.61       7.90
H      -2.67       8.99       7.84
H       3.99       2.66      10.84
H       0.70       0.24      10.78
H      -4.64       9.40       8.38
H       4.66       0.48      11.51
H      -0.53       8.47       6.90
H       2.68       0.06      10.20
H      -1.00       6.99       2.58
H       3.12       2.36      16.67
H      -1.99       6.86      16.83
H       2.77       3.65       2.36
H      -0.24       6.54       9.54
H       5.53       2.78       9.11
H       8.29       2.18      11.55
H       9.34       2.52      12.97
H       8.02       1.38      13.14
H       3.15       7.46       6.86
H       4.52       7.27       5.70
H       3.20       8.34       5.29
O       6.04       0.71       6.17
O       4.44       6.14      15.51
O      -1.04       3.20       3.17
O       8.27       0.99       3.27
O       2.71       8.35      15.42
O       7.34       3.12       4.68
O       1.78       6.22      14.01
O       0.50       8.63      12.52
O       5.03       3.35       6.08
O      -0.52       5.99      12.61
O       5.97       5.41       6.20
O       0.41       3.93      12.49
O      -2.33       4.99       6.08
O       3.17       4.36      12.61
O      -1.05       3.13       6.18
O       4.46       6.21      12.51
O       8.27       0.92       6.05
O       2.72       8.42      12.63
O       6.04       0.79       3.17
O       0.48       8.56      15.52
O       5.03       3.42       3.30
O      -0.54       5.92      15.39
O       5.97       5.48       3.20
O      -2.33       5.05       3.30
O       0.39       3.86      15.49
O      -1.34       7.14       1.66
O       2.70       2.80      17.46
O      -1.49       7.01      17.67
O       2.84       3.28       1.44
O       3.15       4.29      15.39
O      -0.82       7.03      10.18
O       4.96       2.22       8.51
O       9.69       0.68      12.14
O       4.55       9.07       6.69
