14

C       2.01      18.25       8.48
O       0.96      17.70       7.99
C      -0.43      20.73       4.79
C       2.01      18.25       4.72
Cu      -0.04      18.61       6.60
O       2.58      19.30       8.04
Cu       1.70      20.34       6.60
O       0.96      17.70       5.22
O       2.58      19.30       5.16
O       0.65      21.28       8.00
O      -0.95      19.65       7.97
O       0.65      21.28       5.20
O      -0.95      19.65       5.23
C      -0.43      20.73       8.41
