14

O      11.56       5.02      21.21
O      13.15       6.65      21.18
Cu      12.24       7.69      19.81
Cu      10.51       5.96      19.81
C      10.19       8.05      21.69
C      12.63       5.57      21.62
O      11.56       5.02      18.41
O      13.15       6.65      18.44
C      12.63       5.57      18.00
C      10.19       8.05      17.93
O      11.24       8.60      21.19
O       9.62       7.00      21.25
O      11.24       8.60      18.42
O       9.62       7.00      18.37
