106

Zn       7.40      12.61      14.68
Zn       7.43      10.70      17.22
Zn       5.90       9.83      14.47
Zn       9.10       9.83      14.65
Zn      13.76       9.61       5.16
Zn       3.15       7.73       7.68
Zn       4.72       6.85       4.94
Zn      12.07       6.84       5.10
H       4.42      10.39      10.42
H      10.95       3.32       6.96
H       1.86       4.73       8.39
H       1.89       4.37      10.86
H      12.63       9.61      16.27
H      10.67       4.30       1.00
H       2.34       4.49       2.09
H       4.43       4.24       0.73
H       5.40       5.78      13.92
H      12.76      11.34      14.27
H      14.92      12.57      14.45
H       9.69       5.74      14.27
H       6.16       7.36       0.91
H      10.21       6.30      16.48
H       8.73       7.71      17.91
H       8.69       1.34       1.34
H       8.50       6.62       6.74
H      10.46       7.33      10.50
H       8.24       7.49      11.62
H       6.14       7.24      10.29
H       5.21       2.79       4.41
H       8.42       8.33       4.70
H       6.26       9.55       4.92
H       0.92       2.72       4.77
C       5.90      11.78      12.27
C      14.69      10.52       7.75
C       5.79      12.02      10.80
C       5.00      11.20       9.99
C      15.50      11.43       8.60
C       0.43       3.16       8.03
C       1.25       3.95       8.84
C       1.27       3.75      10.22
C       4.64       9.85      17.10
C      10.22       9.88      17.40
C       3.41       9.93      17.94
C      12.71       9.81      17.33
C      11.54       9.96      18.09
C      11.59       4.18       0.42
C       2.28       4.28       1.03
C       3.45       4.14       0.27
C       7.54       7.41      14.05
C      10.28      12.42      14.04
C       7.55       5.92      14.06
C       6.33       5.23      14.00
C      11.58      13.13      14.05
C      12.79      12.42      14.20
C      13.99      13.11      14.30
C       8.75       5.20      14.21
C       4.71       8.77       2.75
C       6.46      13.51      17.26
C      15.36       8.99       1.28
C       5.59       8.17       0.47
C       5.66      14.42      18.12
C      10.17       6.15      17.55
C       9.36       6.94      18.36
C       9.31       0.71       0.70
C       5.94       6.87       7.60
C      10.92       6.90       7.84
C       7.18       6.92       8.43
C       8.43       6.81       7.81
C       9.61       6.95       8.56
C       9.54       7.20       9.93
C       8.29       7.29      10.56
C       7.12       7.16       9.81
C       3.07       4.41       4.56
C      10.91       9.43       4.49
C       3.07       2.92       4.56
C       4.29       2.23       4.48
C       9.59      10.13       4.51
C       8.39       9.41       4.66
C       7.18      10.10       4.77
C       1.87       2.19       4.70
O       6.47      12.70      12.95
O       5.44      10.68      12.74
O      14.10       9.56       8.33
O      14.67      10.76       6.48
O       5.76       9.76      17.70
O       4.47       9.90      15.83
O       9.18      10.31      18.02
O      10.22       9.39      16.22
O       6.40       7.98      14.05
O       8.68       8.00      14.04
O       7.46      10.73      15.25
O      10.29      11.16      13.84
O       9.24      13.14      14.26
O      14.71       9.69       3.43
O       5.20       7.67       3.21
O       7.07      12.55      17.84
O       6.47      13.74      15.99
O       4.82       6.80       8.21
O       6.11       6.91       6.33
O      11.96       7.33       8.47
O      10.91       6.44       6.66
O       4.22       4.98       4.56
O      12.49       5.00       4.54
O      13.70       7.73       5.71
O      10.92       8.18       4.23
O      11.93      10.16       4.75
