40

C      13.61       0.56      18.17
C      15.07       0.29      18.40
C      15.55      -0.99      18.18
C      16.91      -1.33      18.36
C      16.80      -3.83      18.13
C      17.49      -4.91      17.53
C      15.76      -6.45      18.24
C      16.97      -6.20      17.59
C      15.07      -5.39      18.83
C      15.58      -4.09      18.78
H      18.47      -2.55      18.14
H      14.85      -1.73      17.81
H      18.44      -4.71      17.03
H      15.35      -7.46      18.27
H      17.52      -7.01      17.11
H      14.13      -5.57      19.35
H      15.04      -3.28      19.28
H      14.41       2.55      19.01
C      19.27      -0.56      18.98
C      17.81      -0.29      18.76
C      17.33       0.99      18.98
C      15.97       1.33      18.80
C      16.08       3.83      19.02
C      15.39       4.91      19.62
C      17.12       6.45      18.92
C      15.91       6.20      19.57
C      17.81       5.39      18.32
C      17.30       4.09      18.37
H      18.04       1.73      19.35
H      14.45       4.71      20.13
H      17.53       7.46      18.89
N      17.42      -2.58      18.10
H      15.36       7.01      20.05
H      17.84       3.28      17.88
H      18.75       5.58      17.81
N      15.46       2.58      19.06
O      12.95      -0.41      17.64
O      13.09       1.67      18.50
O      19.94       0.41      19.52
O      19.79      -1.67      18.65
