12

Ni       5.98       6.56       5.82
C       7.36       8.95       5.06
C       4.29       4.44       4.88
N       4.30       5.65       5.43
C       3.00       6.12       5.38
C       7.26       5.47       3.64
O       6.47       6.47       3.82
C       7.25       4.94       7.86
C       5.87       6.31       8.84
N       6.24       5.86       7.64
N       7.24       8.00       6.00
C       8.35       8.14       6.83
