896

H      37.45       6.06       5.91
H      37.68       7.26      10.00
H      34.60       6.62       9.75
H      36.42       3.48       7.35
H      33.18       8.06       4.93
H      41.32       4.14      10.16
H       3.66      41.64       6.01
H       3.42      40.37      10.06
H       6.51      41.03       9.83
H       4.71      44.21       7.49
H       7.92      39.66       4.99
H       1.25      44.47      11.56
H      37.57      41.65      23.28
H      37.79      40.46      19.19
H      34.72      41.09      19.45
H      36.56      44.23      21.88
H      33.30      39.67      24.27
H      40.13      44.41      17.74
H       3.75       6.05      23.28
H       3.45       7.37      19.25
H       6.57       6.68      19.42
H       4.79       3.49      21.74
H       8.02       8.06      24.27
H       1.13       3.21      17.90
H       3.62      41.49      51.19
H       3.42      40.42      47.10
H       6.50      41.15      47.36
H       4.63      44.16      49.84
H       7.88      39.37      52.12
H      41.27      43.56      46.93
H      37.47       6.16      51.12
H      37.70       7.30      47.06
H      34.60       6.57      47.29
H      36.42       3.50      49.72
H      33.23       8.30      52.07
H      39.89       3.18      45.64
H       3.64       6.20      33.97
H       3.44       7.25      38.07
H       6.52       6.54      37.80
H       4.65       3.53      35.28
H       7.91       8.31      33.04
H       1.07       3.29      39.43
H      37.55      41.52      33.99
H      37.75      40.42      38.06
H      34.65      41.14      37.81
H      36.48      44.18      35.35
H      33.30      39.39      33.03
H      39.88      44.59      39.44
H      16.76      30.50       5.90
H      16.97      31.66      10.00
H      13.87      31.00       9.70
H      15.71      27.91       7.30
H      13.66      34.08       4.90
H      20.59      28.53      10.15
H      24.35      17.19       5.99
H      24.14      15.96      10.07
H      27.25      16.65       9.78
H      25.41      19.77       7.44
H      27.45      13.62       4.95
H      21.98      20.08      11.54
H      16.85      17.21      23.29
H      17.05      16.05      19.18
H      13.95      16.71      19.50
H      15.82      19.80      21.92
H      13.74      13.65      24.31
H      19.37      20.02      17.74
H      24.47      30.50      23.29
H      24.19      31.77      19.25
H      27.33      31.06      19.48
H      25.52      27.92      21.78
H      27.56      34.07      24.32
H      21.89      27.61      17.92
H      24.30      17.04      51.19
H      24.14      16.02      47.09
H      27.25      16.78      47.42
H      25.34      19.73      49.89
H      27.26      13.45      52.14
H      20.52      19.17      46.94
H      16.79      30.61      51.12
H      16.98      31.70      47.05
H      13.85      30.93      47.35
H      15.71      27.94      49.77
H      13.85      34.21      52.10
H      19.15      27.57      45.66
H      24.35      30.66      33.96
H      24.18      31.65      38.07
H      27.29      30.91      37.74
H      25.39      27.97      35.23
H      27.32      34.23      33.02
H      21.82      27.67      39.41
H      16.83      17.07      33.98
H      17.01      16.02      38.06
H      13.88      16.77      37.75
H      15.75      19.75      35.31
H      13.89      13.47      33.01
H      19.12      20.21      39.41
H      36.89       9.53       1.09
H      34.11       4.93      54.82
H      36.73       5.66      53.44
H      36.21       8.97       3.45
H       4.32      38.14       1.16
H       6.90      42.84      54.93
H       4.39      42.00      53.49
H       4.89      38.73       3.52
H      37.02      38.19      28.10
H      34.15      42.73      30.27
H      36.76      42.04      31.67
H      36.34      38.75      25.75
H       4.32       9.54      28.09
H       6.99       4.90      30.29
H       4.43       5.68      31.66
H       4.95       8.97      25.74
H      16.37      33.97       1.10
H      13.36      29.51      54.81
H      15.97      30.12      53.44
H      15.75      33.43       3.47
H      24.82      13.70       1.17
H      27.67      18.25      54.91
H      25.14      17.54      53.49
H      25.36      14.28       3.54
H      16.47      13.76      28.10
H      13.37      18.14      30.27
H      15.98      17.58      31.68
H      15.85      14.30      25.73
H      24.86      33.98      28.09
H      27.79      29.49      30.26
H      25.21      30.15      31.67
H      25.43      33.41      25.72
H      39.79      47.90      10.16
H       0.85      47.40       4.95
H       2.24      46.04       7.07
H      39.21       1.48       9.95
H      39.83      48.69      19.10
H       0.96       0.23      24.28
H       2.33       1.62      22.16
H      39.22      46.31      19.29
H       1.34      48.59      47.02
H      40.26       0.24      52.24
H      38.87       1.63      50.12
H       1.90      46.20      47.22
H       1.43      47.86      38.05
H      40.25      47.47      32.89
H      38.92      46.09      34.99
H       2.01       1.42      37.86
H      19.02      23.48      10.12
H      21.62      22.97       4.93
H      22.96      21.63       7.04
H      18.48      25.88       9.91
H      19.06      24.29      19.14
H      21.74      24.66      24.29
H      23.08      26.03      22.19
H      18.47      21.91      19.31
H      22.08      24.20      47.06
H      19.48      24.68      52.25
H      18.14      26.04      50.14
H      22.63      21.80      47.25
H      22.17      23.44      38.01
H      19.51      23.11      32.85
H      18.17      21.68      34.95
H      22.77      25.82      37.82
H      28.91      10.38       8.03
H      34.10      14.02       6.16
H      34.03      10.67       7.01
H      27.72      12.50       7.34
H      12.21      37.30       8.01
H       7.00      33.67       6.18
H       7.08      37.01       7.04
H      13.39      35.18       7.30
H      29.01      37.33      21.25
H      34.26      33.69      22.99
H      34.14      37.04      22.21
H      27.83      35.20      21.95
H      12.29      10.41      21.22
H       7.02      13.99      23.05
H       7.17      10.69      22.23
H      13.47      12.54      21.92
H      12.18      37.32      48.93
H       6.97      33.66      50.78
H       7.03      36.95      49.88
H      13.39      35.22      49.61
H      28.93      10.37      48.94
H      34.15      14.01      50.78
H      34.08      10.74      49.85
H      27.72      12.46      49.64
H      12.21      10.37      36.20
H       7.00      14.01      34.33
H       7.06      10.74      35.27
H      13.42      12.47      35.49
H      28.98      37.32      36.21
H      34.13      33.64      34.32
H      34.13      36.95      35.26
H      27.77      35.22      35.51
H      39.69       8.04      14.95
H       1.25       3.23      14.27
H       2.41       5.11      16.33
H      38.92       7.72      12.46
H       1.13      38.54      14.27
H      41.24      44.19      14.71
H      39.22      39.75      17.15
H       2.18      39.72      12.24
H       1.15      38.60      42.95
H      41.11      44.21      42.52
H      39.21      39.72      40.07
H       2.19      39.80      44.97
H      40.04       9.13      42.92
H      41.42       3.48      42.49
H       1.99       7.94      40.07
H      38.98       7.94      44.93
H      18.98      32.44      14.94
H      22.02      27.61      14.36
H      23.16      29.50      16.34
H      18.21      32.11      12.46
H      21.89      14.17      14.29
H      20.43      19.80      14.65
H      18.49      15.35      17.17
H      22.91      15.34      12.25
H      21.83      14.19      42.98
H      20.43      19.83      42.49
H      18.44      15.34      40.09
H      22.90      15.41      44.97
H      19.36      33.53      42.95
H      20.63      27.87      42.41
H      22.75      32.32      40.08
H      18.27      32.33      44.94
C      36.45       6.56       7.72
C      36.66       6.58       6.32
C      35.84       7.30       5.44
C      34.77       8.07       5.96
C      34.57       8.19       7.36
C      35.39       7.39       8.22
C      37.37       5.76       8.53
C      37.83       4.46       8.13
C      38.87       3.77       8.82
C      39.45       4.41       9.94
C      38.97       5.65      10.41
C      37.95       6.32       9.70
C       4.66      41.11       7.80
C       4.44      41.11       6.40
C       5.26      40.40       5.51
C       6.33      39.63       6.02
C       6.54      39.49       7.41
C       5.72      40.28       8.29
C       3.75      41.90       8.63
C       3.30      43.22       8.27
C       2.29      43.90       9.00
C       1.77      43.29      10.16
C       2.21      42.01      10.57
C       3.17      41.32       9.79
C      36.58      41.15      21.48
C      36.79      41.13      22.88
C      35.96      40.41      23.76
C      34.89      39.65      23.24
C      34.69      39.53      21.84
C      35.51      40.32      20.98
C      37.48      41.95      20.66
C      37.95      43.26      21.05
C      38.96      43.95      20.33
C      39.49      43.35      19.17
C      39.05      42.08      18.74
C      38.06      41.40      19.48
C       4.73       6.59      21.47
C       4.53       6.58      22.88
C       5.36       7.30      23.76
C       6.42       8.07      23.25
C       6.62       8.21      21.85
C       5.79       7.43      20.98
C       3.81       5.81      20.65
C       3.36       4.49      21.01
C       2.31       3.83      20.31
C       1.76       4.47      19.18
C       2.21       5.75      18.76
C       3.20       6.41      19.52
C       4.64      41.09      49.38
C       4.42      41.01      50.78
C       5.26      40.27      51.63
C       6.30      39.50      51.08
C       6.52      39.46      49.68
C       5.72      40.30      48.85
C       3.72      41.90      48.59
C       3.24      43.19      49.01
C       2.21      43.89      48.31
C       1.65      43.27      47.16
C       2.14      42.03      46.69
C       3.15      41.36      47.41
C      36.45       6.59      49.31
C      36.68       6.65      50.71
C      35.85       7.40      51.57
C      34.80       8.17      51.03
C      34.58       8.23      49.63
C      35.38       7.39      48.79
C      37.36       5.78      48.51
C      37.82       4.48      48.90
C      38.83       3.78      48.18
C      39.36       4.38      47.01
C      38.93       5.66      46.59
C      37.95       6.35      47.34
C       4.66       6.60      35.78
C       4.44       6.68      34.38
C       5.28       7.42      33.52
C       6.33       8.19      34.08
C       6.55       8.23      35.48
C       5.74       7.39      36.31
C       3.74       5.78      36.57
C       3.27       4.49      36.14
C       2.25       3.78      36.84
C       1.72       4.37      38.01
C       2.17       5.62      38.47
C       3.17       6.32      37.75
C      36.52      41.10      35.79
C      36.75      41.03      34.40
C      35.92      40.29      33.53
C      34.87      39.51      34.07
C      34.64      39.46      35.47
C      35.44      40.30      36.31
C      37.43      41.92      36.59
C      37.88      43.22      36.19
C      38.88      43.93      36.92
C      39.39      43.34      38.10
C      38.97      42.06      38.52
C      38.01      41.36      37.76
C      15.76      30.99       7.70
C      15.98      31.03       6.31
C      15.18      31.79       5.43
C      14.13      32.58       5.95
C      13.89      32.64       7.35
C      14.69      31.81       8.21
C      16.65      30.18       8.52
C      17.12      28.88       8.11
C      18.15      28.18       8.80
C      18.73      28.81       9.93
C      18.25      30.05      10.41
C      17.23      30.72       9.69
C      25.35      16.68       7.79
C      25.12      16.66       6.39
C      25.92      15.91       5.50
C      26.97      15.12       6.01
C      27.22      15.04       7.41
C      26.42      15.85       8.28
C      24.46      17.48       8.62
C      24.01      18.80       8.25
C      23.00      19.49       8.98
C      22.49      18.88      10.15
C      22.93      17.61      10.56
C      23.89      16.92       9.79
C      15.85      16.72      21.49
C      16.08      16.68      22.88
C      15.27      15.93      23.76
C      14.22      15.14      23.24
C      13.98      15.08      21.85
C      14.78      15.90      20.99
C      16.75      17.54      20.67
C      17.21      18.84      21.07
C      18.22      19.55      20.35
C      18.74      18.95      19.18
C      18.29      17.68      18.74
C      17.31      16.99      19.49
C      25.45      31.03      21.49
C      25.24      31.04      22.89
C      26.05      31.78      23.77
C      27.09      32.58      23.25
C      27.32      32.66      21.86
C      26.52      31.85      20.99
C      24.55      30.23      20.67
C      24.10      28.91      21.03
C      23.06      28.24      20.33
C      22.51      28.87      19.19
C      22.96      30.15      18.77
C      23.94      30.82      19.52
C      25.34      16.66      49.39
C      25.10      16.55      50.78
C      25.91      15.77      51.63
C      26.94      14.99      51.07
C      27.20      15.00      49.68
C      26.42      15.88      48.86
C      24.43      17.49      48.60
C      23.95      18.77      49.03
C      22.93      19.48      48.33
C      22.38      18.87      47.17
C      22.86      17.64      46.69
C      23.87      16.95      47.41
C      15.76      31.02      49.32
C      16.00      31.11      50.71
C      15.20      31.89      51.57
C      14.17      32.69      51.02
C      13.90      32.68      49.63
C      14.68      31.81      48.80
C      16.65      30.20      48.52
C      17.11      28.89      48.92
C      18.11      28.19      48.20
C      18.63      28.78      47.03
C      18.21      30.05      46.60
C      17.23      30.75      47.35
C      25.39      31.03      35.77
C      25.14      31.14      34.38
C      25.96      31.92      33.53
C      26.99      32.70      34.09
C      27.25      32.69      35.48
C      26.47      31.81      36.30
C      24.48      30.20      36.55
C      24.01      28.91      36.12
C      23.00      28.19      36.82
C      22.47      28.76      38.00
C      22.92      30.02      38.47
C      23.91      30.72      37.74
C      15.79      16.67      35.78
C      16.04      16.57      34.39
C      15.23      15.79      33.53
C      14.21      15.00      34.08
C      13.94      15.01      35.47
C      14.71      15.88      36.30
C      16.69      17.50      36.58
C      17.14      18.80      36.17
C      18.14      19.52      36.89
C      18.64      18.95      38.08
C      18.23      17.67      38.51
C      17.26      16.96      37.76
C      36.41       6.86      55.09
C      36.68       8.55       0.87
C      36.32       7.63       1.88
C      36.08       5.92       0.20
C      35.68       4.61      55.83
C      36.45       6.57      53.74
C      36.19       8.01       3.21
C       4.69      40.81      55.15
C       4.50      39.13       0.94
C       4.80      40.06       1.95
C       5.00      41.77       0.26
C       5.30      43.10      55.90
C       4.66      41.10      53.80
C       4.91      39.70       3.28
C      36.49      40.84      30.02
C      36.78      39.17      28.32
C      36.42      40.08      27.32
C      36.13      41.78      29.01
C      35.72      43.08      29.28
C      36.51      41.12      31.37
C      36.31      39.71      25.99
C       4.74       6.88      30.01
C       4.52       8.56      28.31
C       4.86       7.63      27.31
C       5.07       5.93      29.00
C       5.42       4.61      29.27
C       4.69       6.59      31.36
C       4.99       8.00      25.98
C      15.74      31.34      55.09
C      16.10      33.00       0.88
C      15.71      32.10       1.88
C      15.37      30.41       0.19
C      14.91      29.12      55.83
C      15.76      31.05      53.74
C      15.62      32.47       3.21
C      25.36      16.34      55.15
C      25.06      14.67       0.95
C      25.40      15.60       1.95
C      25.72      17.28       0.26
C      26.09      18.58      55.89
C      25.35      16.62      53.80
C      25.48      15.23       3.29
C      15.78      16.37      30.02
C      16.18      14.72      28.32
C      15.78      15.62      27.31
C      15.39      17.29      29.01
C      14.92      18.57      29.28
C      15.78      16.65      31.37
C      15.71      15.25      25.98
C      25.43      31.35      30.01
C      25.11      33.01      28.31
C      25.49      32.10      27.31
C      25.80      30.41      29.01
C      26.22      29.12      29.28
C      25.42      31.07      31.36
C      25.58      32.46      25.98
C       0.76      47.14       8.06
C      40.42      48.04       9.37
C      40.37       0.43       8.62
C       0.74      48.34       7.29
C       1.60      48.57       6.23
C       1.65      46.06       7.87
C      39.58       1.51       9.02
C       0.81       0.57      21.19
C      40.46      48.53      19.88
C      40.45      47.30      20.60
C       0.82      48.16      21.92
C       1.70      47.89      22.96
C       1.71       1.63      21.39
C      39.65      46.23      20.18
C      40.35       0.54      49.13
C       0.71      48.45      47.81
C       0.73      47.24      48.55
C      40.39      48.14      49.89
C      39.53      47.91      50.95
C      39.46       1.62      49.32
C       1.51      46.15      48.14
C      40.42      47.16      35.97
C       0.79      48.02      37.27
C       0.78       0.43      36.55
C      40.43      48.38      35.24
C      39.55      48.64      34.20
C      39.52      46.09      35.78
C       1.58       1.50      36.97
C      21.48      22.72       8.03
C      19.65      23.63       9.33
C      19.64      24.83       8.58
C      21.46      23.93       7.26
C      22.34      24.16       6.21
C      22.37      21.65       7.84
C      18.86      25.92       8.99
C      21.55      24.98      21.22
C      19.71      24.12      19.91
C      19.70      22.90      20.62
C      21.54      23.76      21.95
C      22.43      23.49      22.98
C      22.45      26.05      21.42
C      18.89      21.83      20.21
C      19.63      24.95      49.16
C      21.45      24.05      47.85
C      21.46      22.84      48.58
C      19.64      23.74      49.91
C      18.76      23.50      50.96
C      18.74      26.02      49.35
C      22.24      21.75      48.17
C      19.67      22.75      35.94
C      21.52      23.61      37.23
C      21.53      24.83      36.52
C      19.68      23.97      35.21
C      18.79      24.24      34.18
C      18.77      21.68      35.75
C      22.34      25.91      36.93
C      32.16      10.95       7.82
C      29.76      10.94       7.99
C      29.68      12.36       7.92
C      32.10      12.38       7.77
C      33.21      13.18       7.59
C      33.34      10.21       7.55
C      28.47      13.04       7.72
C       8.95      36.73       7.84
C      11.36      36.73       7.98
C      11.43      35.32       7.90
C       9.01      35.30       7.78
C       7.90      34.51       7.60
C       7.78      37.47       7.58
C      12.64      34.64       7.69
C      32.27      36.77      21.40
C      29.86      36.77      21.27
C      29.79      35.35      21.33
C      32.21      35.34      21.45
C      33.32      34.54      21.61
C      33.44      37.51      21.66
C      28.58      34.67      21.55
C       9.03      10.98      21.41
C      11.44      10.98      21.25
C      11.51      12.40      21.32
C       9.09      12.41      21.47
C       7.98      13.20      21.64
C       7.86      10.23      21.68
C      12.72      13.08      21.53
C       8.92      36.71      49.12
C      11.33      36.74      48.96
C      11.42      35.33      49.04
C       9.01      35.28      49.18
C       7.91      34.47      49.36
C       7.74      37.44      49.39
C      12.65      34.67      49.25
C      32.18      10.99      49.11
C      29.77      10.95      48.96
C      29.68      12.36      49.05
C      32.10      12.41      49.18
C      33.19      13.22      49.36
C      33.36      10.26      49.36
C      28.46      13.02      49.28
C       8.95      10.98      36.01
C      11.36      10.95      36.18
C      11.45      12.36      36.08
C       9.04      12.41      35.95
C       7.94      13.22      35.76
C       7.77      10.25      35.76
C      12.68      13.02      35.86
C      32.23      36.71      36.01
C      29.83      36.74      36.18
C      29.74      35.33      36.09
C      32.15      35.29      35.94
C      33.25      34.47      35.76
C      33.42      37.44      35.75
C      28.51      34.67      35.88
C       1.00       6.30      15.41
C      40.48       7.44      14.69
C      40.58       6.87      13.41
C       1.13       5.75      14.11
C       2.10       4.83      13.73
C       1.80       5.89      16.48
C      39.62       7.01      12.41
C      40.47      40.61      15.74
C       0.60      39.41      14.41
C       0.74      40.50      13.53
C      40.60      41.72      14.86
C      39.89      42.91      14.97
C      39.68      40.58      16.88
C       1.59      40.50      12.43
C      40.43      40.61      41.50
C       0.60      39.45      42.82
C       0.71      40.54      43.70
C      40.53      41.72      42.39
C      39.79      42.89      42.27
C      39.64      40.57      40.36
C       1.57      40.56      44.80
C       0.72       7.07      41.46
C      40.58       8.27      42.78
C      40.42       7.16      43.65
C       0.58       5.96      42.34
C       1.30       4.77      42.22
C       1.53       7.10      40.33
C      39.56       7.16      44.74
C      21.75      30.68      15.42
C      19.76      31.83      14.69
C      19.86      31.25      13.41
C      21.87      30.12      14.11
C      22.83      29.19      13.74
C      22.55      30.27      16.48
C      18.89      31.39      12.42
C      19.73      16.21      15.74
C      21.35      15.02      14.42
C      21.47      16.11      13.54
C      19.84      17.32      14.85
C      19.11      18.50      14.96
C      18.94      16.19      16.89
C      22.32      16.11      12.44
C      19.68      16.23      41.51
C      21.30      15.05      42.84
C      21.44      16.16      43.70
C      19.81      17.35      42.37
C      19.09      18.53      42.25
C      18.88      16.19      40.37
C      22.29      16.17      44.80
C      21.47      31.45      41.47
C      19.87      32.66      42.80
C      19.70      31.55      43.65
C      21.31      30.33      42.32
C      22.01      29.13      42.20
C      22.28      31.49      40.34
C      18.84      31.55      44.74
N      39.57       6.12      11.49
N      39.44       2.63       8.37
N      33.53       8.95       7.79
N      36.02       7.13       4.13
N       1.62      41.53      11.66
N       1.71      45.08       8.70
N       7.58      38.73       7.84
N       5.07      40.58       4.20
N      39.61      41.63      17.62
N      39.54      45.09      20.79
N      33.65      38.77      21.41
N      36.14      40.59      25.07
N       1.64       6.30      17.69
N       1.75       2.65      20.60
N       7.65       8.98      21.42
N       5.17       7.12      25.07
N       1.55      41.57      45.59
N       1.64      45.03      48.77
N       7.56      38.71      49.22
N       5.10      40.24      52.96
N      39.53       6.13      45.51
N      39.40       2.60      48.50
N      33.54       8.98      49.18
N      36.00       7.43      52.89
N       1.60       6.06      39.59
N       1.67       2.65      36.37
N       7.59       8.98      35.93
N       5.13       7.46      32.20
N      39.54      41.62      39.64
N      39.45      45.10      36.60
N      33.60      38.71      35.92
N      36.08      40.26      32.21
N      18.84      30.50      11.49
N      18.72      27.03       8.35
N      12.82      33.36       7.77
N      15.34      31.61       4.13
N      22.34      17.13      11.66
N      22.43      20.67       8.67
N      28.29      14.32       7.81
N      25.75      16.10       4.20
N      18.86      17.24      17.62
N      18.79      20.68      20.81
N      12.90      14.36      21.43
N      15.44      16.11      25.07
N      22.39      30.69      17.69
N      22.49      27.06      20.62
N      28.40      33.39      21.44
N      25.87      31.60      25.07
N      22.28      17.18      45.59
N      22.37      20.62      48.79
N      28.28      14.30      49.24
N      25.74      15.73      52.95
N      18.80      30.51      45.51
N      18.68      27.01      48.52
N      12.82      33.39      49.20
N      15.36      31.93      52.89
N      22.35      30.45      39.58
N      22.42      27.06      36.34
N      28.33      33.39      35.92
N      25.80      31.96      32.21
N      18.79      17.23      39.63
N      18.70      20.69      36.57
N      12.86      14.31      35.91
N      15.40      15.76      32.21
N      36.69       8.13      55.49
N      36.03       6.36       1.48
N       4.45      39.53      55.55
N       5.04      41.34       1.55
N      36.80      39.58      29.62
N      36.10      41.34      27.72
N       4.47       8.15      29.60
N       5.13       6.36      27.71
N      16.09      32.59      55.49
N      15.36      30.85       1.48
N      25.04      15.07      55.55
N      25.72      16.86       1.55
N      16.16      15.12      29.61
N      15.40      16.86      27.72
N      25.11      32.61      29.60
N      25.82      30.84      27.71
N      41.31      47.06       9.06
N      41.29       0.51       7.62
N      41.35       0.67      20.20
N      41.38      47.19      21.58
N      41.26       0.61      48.12
N      41.28      47.16      49.55
N      41.35      47.06      36.96
N      41.31       0.54      35.57
N      20.55      22.65       9.03
N      20.57      24.91       7.59
N      20.61      25.08      20.23
N      20.64      22.78      21.61
N      20.55      25.02      48.16
N      20.53      22.75      49.58
N      20.61      22.65      36.92
N      20.59      24.95      35.54
N      30.96      10.31       7.92
N      30.88      13.00       7.79
N      10.15      37.36       7.93
N      10.23      34.68       7.79
N      31.06      37.40      21.32
N      30.99      34.72      21.44
N      10.23      10.35      21.32
N      10.31      13.03      21.44
N      10.12      37.36      49.03
N      10.23      34.68      49.16
N      30.99      10.33      49.01
N      30.87      13.01      49.17
N      10.15      10.33      36.12
N      10.27      13.01      35.96
N      31.04      37.36      36.11
N      30.92      34.68      35.96
N      41.41       7.12      15.63
N       0.17       6.05      13.19
N      41.22      39.50      15.46
N      41.46      41.60      13.81
N      41.21      39.52      41.77
N      41.40      41.62      43.43
N      41.44       8.18      41.74
N      41.18       6.07      43.37
N      20.69      31.51      15.63
N      20.91      30.42      13.20
N      20.49      15.12      15.48
N      20.70      17.20      13.81
N      20.44      15.13      41.79
N      20.67      17.25      43.42
N      20.74      32.57      41.75
N      20.44      30.44      43.36
O      33.93       8.69       5.08
O      40.50       3.82      10.60
O      35.12       7.43       9.55
O      37.30       3.81       7.06
O       7.18      39.03       5.14
O       0.79      43.92      10.88
O       6.00      40.22       9.62
O       3.83      43.87       7.20
O      34.04      39.04      24.12
O      40.53      43.95      18.51
O      35.23      40.28      19.65
O      37.44      43.89      22.14
O       7.27       8.68      24.13
O       0.73       3.88      18.50
O       6.05       7.49      19.65
O       3.92       3.82      22.06
O       7.11      38.80      51.93
O       0.62      43.87      46.50
O       6.00      40.32      47.52
O       3.75      43.81      50.11
O      34.00       8.87      51.88
O      40.34       3.74      46.31
O      35.10       7.39      47.46
O      37.30       3.86      49.99
O       7.14       8.89      33.23
O       0.68       3.76      38.66
O       6.02       7.37      37.64
O       3.77       3.89      35.03
O      34.07      38.81      33.22
O      40.35      44.00      38.82
O      35.16      40.31      37.64
O      37.36      43.83      35.09
O      13.27      33.19       5.09
O      19.77      28.21      10.58
O      14.39      31.81       9.53
O      16.59      28.25       7.02
O      27.83      14.51       5.14
O      21.52      19.52      10.87
O      26.73      15.83       9.60
O      24.53      19.43       7.16
O      13.36      14.54      24.11
O      19.77      19.56      18.51
O      14.47      15.90      19.66
O      16.71      19.46      22.17
O      27.95      33.19      24.13
O      21.48      28.28      18.51
O      26.81      31.88      19.66
O      24.65      28.26      22.09
O      27.75      14.27      51.91
O      21.35      19.49      46.51
O      26.74      15.94      47.54
O      24.46      19.37      50.14
O      13.36      33.40      51.86
O      19.61      28.13      46.32
O      14.36      31.76      47.48
O      16.59      28.29      50.03
O      27.81      33.41      33.25
O      21.43      28.15      38.64
O      26.78      31.74      37.62
O      24.51      28.33      34.99
O      13.40      14.29      33.24
O      19.60      19.61      38.80
O      14.39      15.94      37.62
O      16.63      19.40      35.06
O      36.13       3.74       0.67
O      34.60       4.36      55.30
O       4.85      43.95       0.72
O       6.38      43.39      55.38
O      36.13      43.96      28.54
O      34.63      43.31      29.80
O       5.00       3.74      28.53
O       6.50       4.33      29.82
O      15.30      28.22       0.67
O      13.82      28.91      55.28
O      25.70      19.47       0.72
O      27.18      18.83      55.37
O      15.27      19.48      28.54
O      13.81      18.75      29.81
O      25.81      28.23      28.55
O      27.32      28.90      29.80
O       2.19       0.81       6.23
O       1.36      48.10       5.11
O       2.30      46.83      22.93
O       1.49      48.34      24.09
O      38.91      46.86      50.93
O      39.77      48.35      52.07
O      38.93       0.90      34.22
O      39.75      48.18      33.07
O      22.94      25.23       6.20
O      22.12      23.69       5.09
O      23.02      22.42      22.96
O      22.24      23.95      24.11
O      18.16      22.43      50.97
O      18.98      23.97      52.08
O      18.17      25.29      34.23
O      19.00      23.81      33.04
O      33.41      14.03       8.44
O      33.48      13.43       6.41
O       7.71      33.64       8.45
O       7.62      34.26       6.43
O      33.52      33.71      20.73
O      33.63      34.27      22.77
O       7.78      14.07      20.80
O       7.65      13.42      22.81
O       7.72      33.59      48.53
O       7.59      34.24      50.53
O      33.38      14.11      48.53
O      33.53      13.43      50.53
O       7.75      14.11      36.58
O       7.62      13.43      34.58
O      33.43      33.60      36.60
O      33.52      34.23      34.57
O       2.85       5.19      12.84
O       1.84       3.62      13.73
O      38.68      42.83      14.85
O      40.38      44.00      14.68
O      38.59      42.78      42.45
O      40.25      44.00      42.57
O       2.51       4.84      42.35
O       0.81       3.67      42.51
O      23.56      29.51      12.81
O      22.59      27.98      13.80
O      17.90      18.40      14.85
O      19.57      19.60      14.64
O      17.87      18.46      42.39
O      19.57      19.64      42.52
O      23.22      29.19      42.34
O      21.50      28.04      42.45
