260

Cr       1.73       8.34       6.75
Cr      -1.70       8.40       6.75
Cr      -0.03       5.40       6.75
Cr       8.12       2.73      20.24
Cr       4.69       2.67      20.24
Cr       6.36       5.67      20.24
H      -4.00       7.18      23.46
H       3.46       3.11      16.67
H       1.83      10.94      23.46
H       7.36       6.52      16.67
H       2.17       4.01      23.46
H       8.35       1.44      16.67
H       2.39       3.89       9.97
H      -2.93       7.95       3.18
H       8.22       0.13       9.97
H       0.97       4.55       3.18
H       8.56       7.05       9.97
H       1.97       9.63       3.18
H       9.07       2.03      26.28
H       2.92       8.78      15.19
H       3.61       2.19      26.28
H      -0.25       4.15      15.19
H       6.48       6.84      26.28
H      -2.67       9.20      15.19
H       2.68       9.03      12.79
H       9.31       2.29       1.70
H      -2.78       8.87      12.79
H       6.14       6.91       1.70
H       0.09       4.23      12.79
H       3.72       1.86       1.70
H      -3.13      10.55      23.96
H      -2.05       9.80      25.20
H      -2.52       8.87      23.74
H      -4.92       8.85      24.51
H      -4.56       9.92      25.82
H       1.02       1.02      14.61
H       2.08       0.14      15.78
H       1.56       1.83      16.13
H       3.38       0.89      13.82
H       3.99       1.62      15.26
H       4.31       8.50      23.96
H       3.12       7.94      25.20
H       2.55       8.81      23.74
H       3.73      10.90      24.51
H       4.48      10.05      25.82
H       6.76       9.67      14.61
H       5.47       9.20      15.78
H       7.19       8.80      16.13
H       5.47       7.69      13.82
H       5.80       6.80      15.26
H      -1.07       4.39      25.20
H      -0.03       4.45      23.74
H      -1.18       3.08      23.96
H       1.19       2.39      24.51
H       0.08       2.16      25.82
H      11.38       0.37      14.61
H      11.62       1.73      15.78
H      10.42       0.43      16.13
H      10.31       2.48      13.82
H       9.38       2.64      15.26
H       3.87       2.20      10.25
H       4.34       1.27      11.71
H       3.26       0.52      10.47
H       1.83       1.15      12.33
H       1.47       2.22      11.02
H      -4.83       9.24       2.64
H      -4.31      10.93       2.28
H      -5.37      10.04       1.11
H      -2.40       9.44       1.77
H      -3.01      10.17       0.33
H       8.94       2.26      10.25
H       9.51       3.12      11.71
H      10.70       2.56      10.47
H      10.87       1.01      12.33
H      10.12       0.17      11.02
H       0.80       2.26       2.64
H      -0.92       1.87       2.28
H       0.37       1.40       1.11
H      -0.59       4.26       1.77
H      -0.92       3.38       0.33
H       6.36       6.61      10.25
H       5.32       6.67      11.71
H       5.21       7.98      10.47
H       6.47       8.90      12.33
H       7.58       8.68      11.02
H       4.03      10.63       2.64
H       5.23       9.34       2.28
H       4.99      10.69       1.11
H       2.99       8.43       1.77
H       3.92       8.59       0.33
H       8.84       2.97      24.08
H       3.48       7.36      17.08
H       4.54       1.92      24.08
H      -1.76       4.37      17.08
H       5.79       6.18      24.08
H      -1.73      10.41      17.08
H       2.45       8.10      10.59
H       9.87       3.71       3.59
H      -1.85       9.14      10.59
H       4.63       6.70       3.59
H      -0.60       4.89      10.59
H       4.66       0.66       3.59
C      -0.08       9.94       4.81
C      -2.10       6.05       8.72
C       2.26       6.17       4.81
C      -0.10       9.86       8.72
C      -2.18       6.02       4.81
C       2.20       6.22       8.72
C       6.31       1.13      18.30
C       4.29       5.02      22.21
C       8.65       4.90      18.30
C       6.29       1.20      22.21
C       4.21       5.04      18.30
C       8.59       4.84      22.21
C       9.26       5.60       0.80
C       2.70       5.62      12.91
C       6.61       0.24       0.80
C      -2.87       5.92      12.91
C       3.30       5.22       0.80
C       0.17      10.59      12.91
C       2.87       5.46      14.29
C       9.09       5.45      26.40
C       0.22      10.82      14.29
C       3.52       5.15      26.40
C      -3.09       5.85      14.29
C       6.56       0.47      26.40
C      -3.50       8.05       0.52
C       2.62       3.18      12.62
C       2.33      10.08       0.52
C       7.84       7.21      12.62
C       1.17       4.01       0.52
C       8.71       0.68      12.62
C       2.89       3.02      14.01
C      -3.77       7.89      26.11
C       8.72       0.99      14.01
C       1.45       3.86      26.11
C       7.56       7.06      14.01
C       2.32      10.39      26.11
C      -3.07       6.99       2.72
C       2.48       4.70      10.67
C       1.20      10.23       2.72
C      -3.56       6.57      10.67
C       1.87       4.91       2.72
C       1.08      10.86      10.67
C       3.32       4.07      16.21
C       8.87       6.37      24.16
C       7.59       0.83      16.21
C       2.83       4.50      24.16
C       8.26       6.16      16.21
C       7.47       0.20      24.16
C       8.86       5.08      23.63
C       3.55       5.21      17.00
C       6.36       0.86      23.63
C       9.13       5.38      17.00
C       3.95       5.13      23.63
C       6.49       0.47      17.00
C       2.47       5.99      10.14
C      -2.84       5.85       3.51
C      -0.03      10.21      10.14
C       2.74       5.68       3.51
C      -2.44       5.94      10.14
C       0.10      10.60       3.51
C      -3.38       6.89       1.35
C       2.61       4.49      12.06
C       1.27      10.55       1.35
C       8.97       6.56      12.06
C       2.11       4.69       1.35
C       7.59       0.02      12.06
C       3.01       4.17      14.84
C      -3.78       6.58      25.55
C       7.66       0.52      14.84
C       2.58       4.50      25.55
C       8.50       6.38      14.84
C       1.20      11.05      25.55
C       9.71       4.59       2.98
C       2.52       7.09      10.99
C       5.51       0.36       2.98
C      -1.51       5.34      10.99
C       3.95       6.11       2.98
C      -1.02       9.70      10.99
C       3.32       6.48      16.47
C       8.91       3.97      24.48
C      -0.88      10.70      16.47
C       4.88       5.73      24.48
C      -2.44       4.95      16.47
C       5.37       1.36      24.48
C       9.36       4.45       1.63
C       2.63       6.92      12.37
C       5.56       0.73       1.63
C      -1.71       5.33      12.37
C       4.24       5.88       1.63
C      -0.92       9.88      12.37
C       2.97       6.61      15.12
C       9.02       4.15      25.86
C      -0.82      10.33      15.12
C       4.68       5.74      25.86
C      -2.15       5.19      15.12
C       5.47       1.18      25.86
C       9.08       3.03      26.69
C       2.84       7.89      14.57
C       4.47       1.69      26.69
C      -0.97       4.66      14.57
C       5.62       6.35      26.69
C      -1.86       9.58      14.57
C       2.69       8.04      13.20
C       9.23       3.18       1.08
C      -1.92       9.38      13.20
C       5.42       6.40       1.08
C      -0.77       4.71      13.20
C       4.53       1.49       1.08
C      -4.11       9.09      25.23
C      -2.88       9.60      24.49
C       3.10       1.63      14.59
C       1.86       1.13      15.32
C       3.54      10.08      25.23
C       3.37       8.75      24.49
C       6.25       7.56      14.59
C       6.44       8.89      15.32
C       0.57       2.96      25.23
C      -0.49       3.77      24.49
C       9.81       1.87      14.59
C      10.87       1.05      15.32
C       2.28       1.98      11.74
C       3.51       1.46      11.00
C      -3.29       9.44       1.10
C      -4.53       9.94       1.83
C       9.93       0.99      11.74
C       9.76       2.31      11.00
C      -0.14       3.50       1.10
C       0.05       2.18       1.83
C       6.96       8.10      11.74
C       5.90       7.29      11.00
C       3.43       9.19       1.10
C       4.48      10.02       1.83
O       2.67       7.30       5.25
O      -1.27       9.73       8.24
O      -1.40       5.10       5.25
O       2.67       7.30       8.24
O      -1.27       9.73       5.25
O      -1.40       5.10       8.24
O       9.06       3.76      18.75
O       5.12       1.34      21.73
O       4.99       5.97      18.75
O       9.06       3.76      21.73
O       5.12       1.34      18.75
O       4.99       5.97      21.73
O       0.96       9.42       5.35
O      -2.25       7.19       8.14
O       1.29       5.52       5.35
O       0.96       9.42       8.14
O      -2.25       7.19       5.35
O       1.29       5.52       8.14
O       7.35       1.64      18.84
O       4.14       3.88      21.63
O       7.68       5.55      18.84
O       7.35       1.64      21.63
O       4.14       3.88      18.84
O       7.68       5.55      21.63
O      -0.00       7.38       6.75
O       6.39       3.69      20.24
