198

C       6.06       7.94      22.98
C       7.25       8.36       0.15
C       5.63       9.16      22.09
C       5.21      10.37      22.99
C       6.42      10.76       0.16
C       6.87       9.57       1.06
C       5.64       9.14       1.93
C       4.41       8.72       1.06
C       4.02       9.94       0.17
C       4.85       7.53       0.14
C       6.48       6.79      22.12
C       3.21       8.31       1.86
C       4.78      11.53      22.15
C       8.06       9.96       1.86
C      14.71       9.40       7.15
C      14.48       8.15       8.08
C      -4.68       9.16       6.26
C      -3.41       8.92       7.15
C      -3.67       7.66       8.06
C      15.73       7.87       8.97
C      -4.67       9.15       9.84
C      -4.43      10.43       8.98
C      -3.18      10.16       8.08
C      -5.68      10.65       8.07
C      13.50       9.62       6.31
C      -4.17      11.66       9.79
C      -2.21       8.71       6.29
C      15.48       6.63       9.77
C      11.65       1.19      15.07
C      10.69       2.01      16.00
C      10.81       0.21      14.18
C      -0.36      17.13      15.07
C       9.02       0.09      15.99
C       9.83       1.07      16.90
C      10.82       0.22      17.76
C       1.47      17.25      16.89
C       0.61      16.30      16.00
C      12.61       0.34      15.98
C      12.44       2.13      14.22
C       2.42      16.41      17.70
C      -1.14      16.19      14.22
C       8.89       1.90      17.70
C       8.73       3.28      19.65
C       8.43       5.66      19.40
C       8.12       5.74      20.77
C       8.54       3.40      21.05
C       8.58       2.32      21.93
C       8.37       6.74      18.53
C       9.34       9.43       3.82
C      11.55       8.50       3.57
C      11.77       8.73       4.95
C       9.53       9.54       5.22
C       8.58      10.04       6.09
C      12.52       8.01       2.71
C      14.38       5.80      11.73
C      12.46       4.36      11.48
C      12.53       4.07      12.86
C      14.37       5.60      13.13
C      15.27       6.18      14.00
C      11.55       3.77      10.62
C       2.58      15.04      19.66
C       2.87      12.66      19.41
C       3.15      12.58      20.79
C       2.75      14.93      21.06
C       2.70      16.01      21.93
C       2.93      11.58      18.55
C       1.95       8.87       3.82
C      -0.26       9.81       3.57
C      -0.48       9.60       4.95
C       1.76       8.78       5.22
C       2.71       8.28       6.10
C      -1.23      10.30       2.70
C      -3.06      12.49      11.74
C      -1.15      13.94      11.50
C      -1.24      14.24      12.87
C      -3.06      12.71      13.14
C      -3.97      12.13      14.01
C      -0.24      14.53      10.63
H       4.81       8.86      21.44
H       6.45       9.47      21.44
H       7.26      11.08      23.27
H       6.16      11.62       0.79
H       8.12       8.63      23.29
H       7.56       7.51       0.78
H       5.36       9.98       2.57
H       5.92       8.29       2.56
H       3.71      10.78       0.80
H       3.15       9.67      23.31
H       5.11       6.67       0.76
H       4.01       7.23      23.26
H      -4.53      10.03       5.61
H      15.83       8.30       5.60
H      -3.83       6.78       7.42
H      -2.80       7.46       8.68
H      14.28       7.27       7.46
H      13.60       8.31       8.71
H      -3.80       8.96      10.48
H      15.11       9.32      10.49
H      -2.29       9.99       8.70
H      -2.98      11.05       7.48
H      14.10      10.84       8.70
H      -5.53      11.53       7.44
H       1.16      17.54      13.53
H      10.13       0.78      13.53
H       8.33       0.66      15.36
H      -1.91      17.32      16.62
H      10.02       2.63      15.39
H      11.27       2.70      16.62
H      -0.10      17.44      18.40
H      11.41       0.88      18.40
H       0.03      15.62      16.63
H       1.28      15.69      15.39
H      13.22       1.00      16.61
H       2.97      17.65      15.35
H      10.45       2.02      21.95
H       9.79       7.78      19.23
H       9.53       1.47      19.57
H       8.05       7.70      21.19
H       7.39       8.57       6.12
H      12.68       6.26       3.40
H       7.37       9.62       3.73
H      13.50       7.81       5.36
H      14.59       7.94      14.04
H       9.95       4.49      11.31
H      15.55       7.39      11.64
H      10.88       3.04      13.29
H       0.84      16.30      21.95
H       1.50      10.55      19.24
H       1.79      16.86      19.56
H       3.22      10.63      21.21
H       3.92       9.74       6.11
H      -1.41      12.05       3.39
H       3.91       8.64       3.73
H      -2.20      10.52       5.37
H      -3.30      10.36      14.04
H       1.36      13.80      11.33
H      -4.22      10.88      11.65
H       0.42      15.28      13.29
N       8.70       4.43      18.92
N       8.22       4.62      21.53
N       9.03       2.11      19.04
N       7.59       6.85      21.34
N      10.35       8.88       3.09
N      10.75       9.21       5.70
N       8.17       9.75       3.20
N      12.99       8.63       5.53
N      13.40       5.20      11.00
N      13.46       4.72      13.62
N      15.25       6.64      11.11
N      11.84       3.07      13.44
N       2.61      13.90      18.92
N       3.06      13.71      21.54
N       2.29      16.22      19.04
N       3.67      11.48      21.38
N       0.94       9.42       3.09
N       0.55       9.12       5.70
N       3.11       8.53       3.20
N      -1.69       9.71       5.52
N      -2.08      13.08      11.01
N      -2.17      13.60      13.62
N      -3.93      11.64      11.13
N      -0.54      15.25      13.45
O       2.12       7.92       1.17
O       5.75       5.64      22.15
O       9.16      10.36       1.17
O       5.51      12.67      22.19
O      -3.97      12.81       9.10
O      12.87      10.82       6.35
O      15.27       5.49       9.07
O      -1.58       7.50       6.32
O       3.30      15.66      17.00
O      13.80       2.07      14.25
O       7.99       2.65      17.01
O      -2.50      16.24      14.26
O       7.66       2.20      22.72
O       9.66       1.90      22.35
O       7.87       6.57      17.43
O       9.24       7.62      18.55
O       8.92      10.91       6.87
O       7.67       9.31       6.52
O      12.64       8.55       1.62
O      12.82       6.81       2.73
O      15.85       5.43      14.78
O      15.09       7.32      14.44
O      11.96       3.40       9.53
O      10.36       4.09      10.64
O       3.64      16.15      22.70
O       1.62      16.42      22.35
O       3.45      11.75      17.46
O       2.05      10.71      18.56
O       2.36       7.42       6.89
O       3.63       9.01       6.51
O      -1.33       9.77       1.61
O      -1.55      11.49       2.72
O      -4.55      12.87      14.80
O      -3.79      10.98      14.44
O      -0.66      14.90       9.54
O       0.95      14.20      10.65
