13

O       3.21       6.79       6.17
O       4.14      10.87       1.90
S       4.03       8.73       4.03
H       7.53       8.86       3.04
H       7.14       7.12       5.00
C       6.37       7.72       4.54
C       5.24      10.23       2.03
C       5.39       9.27       3.11
C       6.57       8.64       3.50
O       5.28       6.00       6.58
C       5.03       7.65       4.92
C       4.47       6.77       5.95
O       6.23      10.37       1.23
