800

C      31.37       2.37       0.35
C      46.91      27.08       0.03
C      29.90       0.41       0.27
C      61.32      25.10      27.43
C      30.86      25.67      27.38
C      30.09       1.80       0.43
C      31.04      13.56      13.44
C      30.96      13.31      12.03
C      29.69      13.19      11.41
C      29.85      13.69      14.21
C      29.96      13.94      15.59
C      31.21      14.05      16.22
C      15.49      11.12      13.41
C      46.91      13.91      13.72
C      45.78      13.08      13.48
C      45.44      15.89      13.83
C      46.74      15.33      13.88
C      45.97      11.69      13.33
C      31.04      27.44       0.32
C      15.08       0.18       1.72
C      13.81       0.30       2.35
C      45.73      27.31      27.05
C      45.84      27.06      25.66
C      47.09      26.95      25.04
C      30.29      26.46      14.75
C      31.39      26.01      15.52
C      30.67       1.10      12.49
C      30.48       0.47      13.74
C      46.17      14.54      26.51
C      47.27      14.99      25.74
C      14.79      12.40       1.26
C      14.60      13.03       0.01
C      16.46       0.16      27.47
C      32.51       1.57       0.13
C       2.05       2.14       0.08
C      19.03       1.30      27.34
C      34.76      27.42      27.16
C      33.47      26.84      27.23
C      33.28      25.44      27.08
C      44.49      27.33       0.35
C      44.33      25.95       0.16
C      32.00      24.87      27.16
C      16.46      13.33      13.78
C      16.63      11.92      13.63
C      17.93      11.35      13.67
C      19.04      12.20      13.91
C      18.88      13.58      14.10
C      17.59      14.16      14.03
C      17.40      15.56      14.18
C      44.49      13.67      13.40
C      44.33      15.05      13.59
C      47.88      16.13      14.10
C      24.40      27.34      13.46
C      24.57      27.50      12.05
C      25.87      27.45      11.48
C      26.97      27.21      12.32
C      26.82      27.02      13.71
C      25.53      27.10      14.29
C       7.55       0.21      11.25
C      25.34      26.95      15.68
C      54.85      27.41      14.04
C      37.84       0.15      13.21
C      36.55       0.22      13.80
C      36.39       0.04      15.18
C      53.38      27.30      16.02
C      54.68      27.25      15.46
C      38.03       0.30      11.82
C      55.82      27.03      16.25
C      24.40      13.66       0.29
C      24.57      13.50       1.70
C      25.87      13.55       2.27
C      26.97      13.79       1.43
C      26.82      13.97       0.04
C      41.41      13.90      26.96
C      23.43      13.28       2.50
C      41.22      14.05      25.57
C      38.97      13.59      27.21
C      21.96      13.35       0.54
C      36.55      13.27      27.46
C      36.39      13.46      26.08
C      37.50      13.70      25.23
C      38.80      13.75      25.80
C      22.15      13.20       1.93
C      39.94      13.97      25.00
C      28.54      13.21      12.22
C      28.58      13.48      13.60
C      32.16      13.20      11.29
C      32.32      13.69      14.07
C      33.52      13.56      13.29
C      34.79      13.77      13.90
C      34.83      14.04      15.29
C      33.68      14.05      16.10
C      32.41      13.94      15.47
C      33.41      13.31      11.91
C      12.66       0.28       1.54
C      12.70       0.02       0.15
C      16.28       0.30       2.46
C      48.20      27.31      27.19
C      33.52      27.44       0.46
C      50.67      27.23      27.35
C      50.71      26.96      25.96
C      49.55      26.95      25.16
C      48.29      27.06      25.78
C      17.53       0.18       1.84
C      23.10       0.19      13.69
C      23.02       1.59      13.44
C      21.75       2.22      13.32
C      20.60       1.41      13.33
C      20.64       0.02      13.61
C      37.79      26.92      13.82
C      24.22       2.34      13.32
C      37.90      25.53      14.07
C      40.26      27.06      13.82
C      25.58       0.33      13.69
C      42.73      27.22      13.90
C      42.77      25.84      14.17
C      41.62      25.03      14.18
C      40.35      25.65      14.07
C      25.47       1.71      13.44
C      39.15      24.91      14.18
C      38.98      13.31       0.06
C       7.14      11.90       0.31
C      37.63      11.28       0.43
C      36.48      12.09       0.41
C      36.52      13.47       0.14
C      53.67      14.08      27.44
C       8.34      11.16       0.43
C      53.78      15.47      27.19
C      24.38      13.94      27.44
C       9.70      13.17       0.06
C      26.85      13.78      27.36
C      26.89      15.16      27.09
C      25.74      15.97      27.08
C      56.22      15.35      27.19
C       9.59      11.78       0.31
C      55.03      16.09      27.08
C      38.23      26.38      26.59
C      39.33      25.61      26.14
C      40.64      26.12      26.28
C      40.83      27.36      26.91
C      36.90      25.93      26.53
C      26.19       0.38      27.30
C      22.35      14.62      14.67
C      23.45      15.39      15.12
C      24.76      14.88      14.98
C      24.95      13.64      14.35
C      21.02      15.07      14.73
C      26.19      13.11      13.96
C      32.70      26.15      15.01
C      32.89      26.78      13.76
C      28.96      26.40      15.20
C      34.13      27.17      13.24
C      48.58      14.85      26.24
C      48.77      14.22      27.49
C      44.84      14.60      26.05
C      34.13      13.83       0.51
C      25.14       0.87       0.92
C      24.04       1.64       1.36
C      22.73       1.13       1.22
C      38.42      27.39       0.59
C      26.47       1.32       0.98
C      37.18      26.86       0.20
C      41.02      12.63      12.83
C      39.92      11.86      12.39
C      38.61      12.36      12.53
C      38.42      13.61      13.16
C      42.34      12.17      12.77
C      37.18      14.14      13.54
C      33.08       0.79      12.75
C      31.98       1.23      11.98
C      34.40       0.85      12.30
C      29.24       0.08      14.27
C      17.20      12.71       1.00
C      16.10      12.26       1.77
C      18.52      12.64       1.45
C      29.24      13.42      26.99
C      28.15      21.85      26.74
C      27.54      21.11      25.70
C      26.99      19.85      25.98
C      27.02      19.34      27.30
C      60.32      23.17      26.55
C      10.75      18.06       0.15
C      44.03      19.14      14.52
C      43.42      19.88      15.55
C      42.86      21.15      15.28
C      42.90      21.66      13.96
C      44.43      17.83      14.70
C      42.51      22.94      13.61
C      51.97      26.62      19.27
C      51.36      25.58      20.01
C      50.80      25.85      21.28
C      50.84      27.17      21.79
C      52.37      26.43      17.96
C      34.57       0.02      23.07
C      36.09      14.39      21.98
C      35.48      15.42      21.24
C      34.92      15.15      19.98
C      34.97      13.83      19.47
C      36.49      14.57      23.30
C      34.57      13.48      18.19
C      35.22       5.39       0.76
C      35.83       6.14       1.80
C      36.38       7.40       1.53
C      36.35       7.91       0.21
C       3.06       4.08       0.95
C      52.62       9.19      27.36
C      19.34       8.10      12.99
C      19.95       7.36      11.95
C      20.50       6.10      12.23
C      20.46       5.59      13.54
C      18.94       9.42      12.80
C      20.85       4.31      13.89
C      11.40       0.63       8.23
C      12.01       1.67       7.49
C      12.56       1.39       6.22
C      12.53       0.08       5.72
C      10.99       0.82       9.54
C      28.80      27.23       4.44
C      27.28      12.86       5.52
C      27.89      11.82       6.26
C      28.44      12.10       7.53
C      28.40      13.42       8.03
C      26.87      12.67       4.21
C      28.80      13.77       9.32
C      31.24       7.96       6.71
C      30.91       5.16       6.40
C      29.78       5.99       6.64
C      29.44       3.18       6.29
C      30.74       3.75       6.24
C      29.97       7.39       6.79
C      30.92      19.14      19.80
C      30.84      18.89      18.39
C      29.57      18.78      17.77
C      29.73      19.27      20.57
C      29.84      19.52      21.96
C      31.09      19.64      22.58
C      47.13      16.70      19.77
C      46.79      19.50      20.08
C      45.66      18.67      19.84
C      45.31      21.48      20.19
C      46.62      20.91      20.24
C      45.85      17.27      19.69
C      15.04       5.52       6.68
C      14.96       5.77       8.09
C      13.69       5.88       8.71
C      13.85       5.39       5.91
C      13.96       5.14       4.52
C      15.21       5.03       3.90
C      46.05       4.54      21.11
C      15.39       4.09      21.88
C      30.55       6.68      18.86
C      30.36       6.05      20.10
C      30.17      20.12       5.37
C      31.27      20.57       4.60
C      46.43      17.98       7.62
C      14.48      18.62       6.38
C      32.22       5.75       6.33
C      32.39       7.16       6.49
C      33.69       7.73       6.44
C      34.79       6.88       6.20
C      34.64       5.50       6.02
C      33.35       4.91       6.09
C      33.16       3.52       5.94
C      28.49       5.41       6.71
C      28.33       4.03       6.53
C      31.88       2.95       6.02
C      48.10      18.92      20.15
C      48.27      17.50      19.99
C      49.57      16.94      20.04
C      50.67      17.78      20.28
C      50.52      19.16      20.46
C      49.23      19.75      20.39
C      49.04      21.14      20.54
C      44.37      19.25      19.77
C      44.21      20.63      19.95
C      47.76      21.71      20.46
C      40.15       5.42      19.82
C      40.33       5.58      18.41
C      41.63       5.53      17.84
C      42.73       5.29      18.69
C      42.58       5.10      20.07
C      41.29       5.18      20.66
C      39.18       5.80      17.61
C      41.10       5.03      22.05
C      38.85       5.49      20.41
C      37.72       5.73      19.58
C      36.43       5.81      20.16
C      36.27       5.62      21.54
C      37.38       5.38      22.39
C      38.68       5.33      21.82
C      37.90       5.88      18.18
C      39.82       5.11      22.62
C      24.28      19.24       6.66
C      24.45      19.08       8.07
C      25.75      19.13       8.64
C      26.85      19.37       7.79
C      26.70      19.56       6.41
C      25.41      19.48       5.82
C      23.31      18.86       8.87
C      25.22      19.63       4.43
C      22.97      19.17       6.07
C      21.84      18.93       6.90
C      20.55      18.86       6.32
C      20.39      19.04       4.94
C      21.50      19.28       4.09
C      22.80      19.33       4.66
C      22.03      18.78       8.30
C      23.94      19.55       3.86
C      28.42      18.79      18.58
C      28.46      19.06      19.96
C      32.03      18.78      17.65
C      32.20      19.27      20.43
C      33.40      19.14      19.66
C      34.67      19.35      20.27
C      34.71      19.62      21.65
C      33.56      19.64      22.46
C      32.29      19.52      21.84
C      33.29      18.89      18.27
C      12.54       5.87       7.90
C      12.58       5.60       6.52
C      16.16       5.88       8.83
C      16.32       5.39       6.05
C      17.52       5.52       6.82
C      18.79       5.31       6.21
C      18.83       5.04       4.83
C      17.68       5.03       4.02
C      16.41       5.14       4.64
C      17.41       5.77       8.21
C      22.98       5.77      20.05
C      22.90       7.18      19.80
C      21.63       7.80      19.68
C      20.48       6.99      19.70
C      20.52       5.61      19.97
C      21.79       5.00      20.18
C      24.09       7.92      19.69
C      21.90       3.61      20.43
C      24.26       5.14      20.18
C      25.46       5.91      20.05
C      26.73       5.30      20.26
C      26.77       3.92      20.53
C      25.62       3.11      20.55
C      24.35       3.73      20.43
C      25.35       7.30      19.80
C      23.15       2.99      20.54
C      38.86      18.89       6.43
C      38.78      17.49       6.68
C      37.51      16.86       6.79
C      36.36      17.67       6.78
C      36.40      19.05       6.51
C      37.67      19.66       6.30
C      39.97      16.74       6.79
C      37.78      21.05       6.05
C      40.14      19.52       6.30
C      41.34      18.75       6.43
C      42.61      19.36       6.22
C      42.65      20.75       5.95
C      41.49      21.55       5.94
C      40.22      20.93       6.05
C      41.23      17.36       6.68
C      39.03      21.67       5.94
C       6.35       4.46       5.45
C       7.45       3.69       5.00
C       8.76       4.20       5.14
C       8.95       5.44       5.77
C      36.78       4.01       5.39
C      10.19       5.97       6.16
C      53.99      20.20      21.03
C      55.09      20.97      21.48
C      24.64      20.47      21.34
C      24.83      19.22      20.71
C      52.66      20.66      21.10
C      26.07      18.69      20.32
C      16.70       4.23      21.38
C      16.89       4.86      20.13
C      44.72       4.48      21.56
C      18.13       5.25      19.60
C      32.58      20.43       5.10
C      32.77      19.80       6.35
C      28.84      20.19       4.91
C      34.01      19.41       6.88
C      25.02       6.45       7.28
C      23.92       7.22       7.73
C      22.61       6.71       7.59
C      22.42       5.47       6.96
C      26.34       6.90       7.34
C      21.18       4.94       6.57
C      40.89      18.21      19.20
C      39.80      17.44      18.75
C      38.49      17.95      18.89
C      38.30      19.20      19.52
C      42.22      17.76      19.14
C      37.06      19.72      19.91
C      32.95       6.37      19.12
C      31.86       6.82      18.35
C      34.28       6.43      18.67
C      29.12       5.66      20.63
C      17.08      18.29       7.36
C      15.98      17.84       8.13
C      18.40      18.23       7.81
C      45.00      19.00       5.85
C      43.91      27.44       5.60
C      43.30      26.69       4.56
C      42.74      25.43       4.84
C      42.78      24.93       6.16
C      28.44       1.25       5.41
C      42.39      23.64       6.51
C      43.91      24.73      20.88
C      43.30      25.47      21.92
C      42.74      26.73      21.64
C      42.78      27.24      20.32
C      44.31      23.41      21.06
C      26.51       1.02      19.97
C      35.97       4.69      25.64
C      35.36       3.66      26.38
C      18.93       3.93       0.14
C      18.96       5.25       0.65
C      36.37       4.51      24.32
C      18.57       5.60       1.93
C      20.09      19.97       0.84
C      19.48      21.01       0.10
C      34.80      20.73      26.34
C      34.85      19.42      25.83
C      20.49      20.15       2.16
C      34.45      19.06      24.55
C      35.10      10.98       7.13
C      35.71      11.72       8.16
C      36.26      12.98       7.89
C      36.22      13.49       6.57
C      34.69       9.66       7.31
C      36.62      14.77       6.22
C      19.22      13.69      19.35
C      19.83      12.94      18.31
C      20.38      11.68      18.59
C      20.34      11.17      19.91
C      50.58      15.00      19.17
C      20.73       9.89      20.26
C      43.04       6.22      14.59
C      43.64       7.25      13.85
C      12.44       6.98      12.59
C      12.41       5.66      12.08
C      42.63       6.40      15.91
C      12.80       5.31      10.80
C      27.16      18.44      11.88
C      27.77      17.41      12.63
C      28.32      17.68      13.89
C      28.28      19.00      14.40
C      26.75      18.26      10.57
C      28.67      19.35      15.68
H      31.45       3.39       0.47
H      31.24      14.22      17.22
H      15.58      10.11      13.28
H      47.12      26.78      24.03
H      31.25      25.60      16.44
H      29.87       1.38      11.92
H      47.13      15.40      24.81
H      13.99      12.12       1.83
H      19.97       1.71      27.25
H      43.40      25.54       0.26
H      29.29       2.42       0.59
H      31.92      23.86      27.04
H      34.08      24.82      26.91
H      19.97      11.79      14.01
H      43.40      15.46      13.49
H      45.17      11.07      13.16
H      47.79      17.14      14.22
H      18.20      16.18      14.34
H      27.91      27.12      11.91
H      35.46       0.13      15.59
H      37.23       0.46      11.20
H       7.63       0.33      10.24
H      55.73      26.91      17.27
H      26.14      26.79      16.30
H      27.91      13.88       1.84
H      35.46      13.37      25.67
H      21.35      13.03       2.55
H      23.51      13.16       3.52
H      39.85      14.09      23.99
H      42.02      14.21      24.95
H      27.63      13.12      11.75
H      35.74      14.13      15.75
H      34.24      13.23      11.32
H      32.13      13.02      10.28
H      29.13      14.02      16.18
H      11.76       0.37       2.01
H      51.61      26.88      25.50
H      18.37       0.26       2.43
H      16.25       0.47       3.47
H      45.00      26.99      25.07
H      19.69       1.87      13.25
H      43.67      25.37      14.26
H      26.30       2.30      13.36
H      24.19       3.34      13.15
H      39.18      23.90      14.35
H      37.06      24.94      14.14
H      35.57      11.62       0.50
H      27.79      15.63      27.00
H      10.43      11.19       0.39
H       8.31      10.15       0.60
H      55.06      17.10      26.91
H      52.94      16.05      27.11
H      41.44      25.54      26.00
H      39.19      24.69      25.72
H      36.69      24.98      26.21
H      10.29       1.18       0.44
H      25.56      15.46      15.26
H      23.31      16.31      15.53
H      20.81      16.02      15.05
H      26.17      12.31      13.32
H      33.50      25.87      15.59
H      28.75      26.08      16.15
H      18.23       0.30      12.44
H      49.38      15.13      25.67
H      44.63      14.92      25.11
H      34.11      13.19       1.31
H      21.93       1.70       1.51
H      24.18       2.56       1.78
H      26.68       2.26       1.30
H      53.08      26.06      27.07
H      37.81      11.79      12.24
H      40.06      10.93      11.97
H      42.56      11.23      12.45
H      37.20      14.94      14.18
H      32.12       1.65      11.06
H      34.62       1.17      11.36
H      45.14      26.94      15.07
H      16.24      11.84       2.69
H      18.74      12.32       2.40
H      29.26      14.06      26.19
H      26.57      19.31      25.22
H      27.49      21.48      24.75
H      59.88      23.69      25.82
H      11.16      17.68       0.97
H      42.45      21.69      16.04
H      43.36      19.51      16.50
H      44.00      17.31      15.43
H      42.92      23.32      12.78
H      50.39      25.09      21.82
H      51.30      24.63      19.64
H      51.94      25.70      17.44
H      34.98       0.85      23.45
H      34.51      15.91      19.44
H      35.42      16.37      21.62
H      36.06      15.30      23.82
H      34.98      12.65      17.80
H      36.80       7.94       2.29
H      35.88       5.76       2.75
H       3.49       3.56       1.68
H      52.21       9.57      26.53
H      20.92       5.55      11.46
H      20.01       7.74      11.00
H      19.37       9.94      12.07
H      20.45       3.92      14.72
H      12.98       2.16       5.68
H      12.06       2.62       7.86
H      11.43       1.55      10.06
H      28.39      26.40       4.05
H      28.86      11.33       8.07
H      27.95      10.87       5.89
H      27.31      11.94       3.69
H      28.39      14.59       9.70
H      31.33       8.97       6.83
H      31.12      19.81      23.59
H      47.21      15.69      19.65
H      15.24       4.86       2.89
H      47.01       3.68      22.81
H      29.75       6.96      18.28
H      31.13      20.99       3.67
H      45.63      17.70       8.20
H      35.73       7.29       6.11
H      27.40       3.62       6.62
H      29.17       8.01       6.95
H      31.80       1.94       5.90
H      33.96       2.90       5.78
H      51.61      17.37      20.37
H      43.28      21.04      19.86
H      45.05      16.65      19.52
H      47.67      22.72      20.58
H      49.83      21.76      20.71
H      43.67       5.20      18.28
H      35.34       5.71      21.95
H      37.11       6.04      17.56
H      39.27       5.92      16.60
H      39.73       4.99      23.63
H      41.90       4.87      22.67
H      27.79      19.46       8.20
H      19.46      18.95       4.53
H      21.23      18.62       8.92
H      23.39      18.74       9.88
H      23.85      19.67       2.85
H      26.02      19.80       3.81
H      27.51      18.70      18.11
H      35.61      19.71      22.12
H      34.12      18.82      17.68
H      32.01      18.61      16.64
H      29.00      19.60      22.55
H      11.63       5.95       8.37
H      19.73       4.96       4.36
H      18.24       5.84       8.79
H      16.13       6.05       9.84
H      13.12       5.07       3.94
H      19.57       7.46      19.61
H      27.67       3.45      20.62
H      26.18       7.89      19.72
H      24.07       8.93      19.51
H      23.18       1.98      20.72
H      21.06       3.02      20.51
H      35.45      17.20       6.86
H      43.55      21.21       5.86
H      42.06      16.78       6.75
H      39.95      15.73       6.96
H      39.06      22.68       5.77
H      36.94      21.64       5.97
H       9.56       3.62       4.86
H       7.31       2.76       4.59
H       4.81       3.06       5.07
H      10.17       6.77       6.80
H      25.44      21.04      21.62
H      54.95      21.90      21.90
H      52.45      21.60      21.42
H      26.05      17.89      19.68
H      17.50       3.95      21.95
H      44.51       4.16      22.51
H      18.11       5.89      18.80
H      33.38      20.71       4.53
H      28.63      20.51       3.97
H      33.99      18.77       7.68
H      21.81       7.29       7.87
H      24.06       8.14       8.14
H      26.56       7.85       7.66
H      21.20       4.14       5.93
H      37.69      17.37      18.61
H      39.94      16.51      18.34
H      42.44      16.81      18.82
H      37.08      20.52      20.55
H      32.00       7.23      17.42
H      34.50       6.75      17.72
H      29.14       5.02      21.43
H      16.12      17.43       9.06
H      18.62      17.91       8.76
H      45.02      19.64       5.05
H      42.33      24.89       4.08
H      43.25      27.07       3.61
H      28.00       1.76       4.68
H      42.79      23.26       7.34
H      42.33      27.27      22.40
H      43.24      25.09      22.87
H      43.87      22.89      21.80
H      26.92       1.40      19.15
H      18.51       3.17       0.68
H      35.30       2.71      26.00
H      35.94       3.78      23.80
H      18.98       6.43       2.31
H      34.39      21.50      25.80
H      19.42      21.96       0.48
H      20.06      20.88       2.68
H      34.86      18.24      24.17
H      36.68      13.52       8.65
H      35.76      11.34       9.12
H      35.13       9.14       8.04
H      36.21      15.15       5.39
H      20.80      11.14      17.83
H      19.89      13.32      17.36
H      51.01      15.52      18.44
H      20.33       9.51      21.09
H      12.86       7.74      12.05
H      43.70       8.20      14.22
H      43.06       7.13      16.43
H      12.39       4.48      10.42
H      28.74      16.92      14.43
H      27.83      16.45      12.25
H      27.19      17.53      10.05
H      28.27      20.18      16.06
N      29.49      13.00      10.09
N      13.61       0.49       3.66
N      30.57      27.02      13.54
N      31.59       0.07      14.41
N      30.56      13.98       0.21
N      31.59      13.43      26.84
N      35.89      26.75      26.86
N       2.30       3.46       0.11
N      61.07      23.79      27.40
N      27.48       0.50       0.65
N      20.01      14.25      14.40
N      18.18      10.04      13.65
N      45.18      17.21      13.86
N      43.36      12.99      13.10
N      27.95      26.73      14.38
N      26.12      27.48      10.16
N      53.13      27.27      17.34
N      35.42       0.52      13.12
N      43.83      14.27      26.87
N      26.12      13.52       3.59
N      37.24      13.73      23.92
N      19.54      12.97       0.63
N      27.40      13.63      14.28
N      33.88      14.24      17.41
N      35.96      13.62      13.22
N      43.28      27.37      26.98
N      49.75      26.76      23.84
N      35.96      27.38       0.52
N      35.34      26.85      13.76
N      21.55       3.53      13.13
N      41.82      23.72      14.37
N      28.02       0.40      13.74
N      51.22      14.15      27.49
N      37.43       9.96       0.62
N      25.94      17.28      26.88
N      12.15      13.10       0.01
N      23.84       0.53      27.31
N      22.63       0.08      27.15
N      23.84      12.96      13.95
N      22.63      13.41      14.11
N      31.78      27.18      13.09
N      31.78      13.81       0.66
N      39.53      26.71       0.19
N      40.74      27.17       0.35
N      39.53      14.29      13.56
N      40.74      13.83      13.39
N      32.80       0.23      13.96
N      32.80      13.27      27.29
N      43.52      20.12       0.73
N      44.03      21.29       0.48
N      43.52      20.89      13.02
N      44.03      19.70      13.27
N      35.58       0.61      21.01
N      36.09       0.35      19.83
N      35.58      12.89      20.24
N      36.09      13.15      21.42
N      19.85       7.13      26.77
N      19.34       5.95      27.03
N      19.85       6.36      14.48
N      19.34       7.54      14.23
N      27.79      26.64       6.49
N      27.28      26.89       7.67
N      27.79      14.35       7.26
N      27.28      14.10       6.08
N      29.37      18.59      16.46
N      13.49       6.07      10.02
N      14.57       5.10      19.91
N      31.47       5.65      20.78
N      30.44      19.56       6.57
N      15.59      19.02       5.70
N      35.77       4.83       5.72
N      33.94       9.04       6.47
N      29.19       1.87       6.26
N      27.36       6.08       7.01
N      51.65      19.84      20.77
N      49.82      15.62      20.01
N      45.06      22.79      20.22
N      43.24      18.58      19.46
N      43.71       4.81      20.74
N      41.88       5.56      16.53
N      37.13       5.35      23.70
N      35.30       6.10      19.49
N      27.83      19.86       5.73
N      26.00      19.10       9.95
N      21.24      19.31       2.78
N      19.42      18.56       6.99
N      27.28      19.22      20.64
N      33.76      19.83      23.77
N      35.84      19.20      19.59
N      11.40       5.45       5.84
N      17.87       4.84       2.70
N      19.96       5.46       6.89
N      19.34       4.93      20.12
N      21.43       9.11      19.49
N      25.82       1.80      20.74
N      27.90       5.98      20.11
N      35.22      19.73       6.36
N      37.31      15.55       6.98
N      41.69      22.87       5.75
N      43.78      18.68       6.37
N       7.84       6.12       6.18
N      38.38       5.66       6.01
N      23.72      18.54      20.31
N      54.26      19.00      20.47
N      15.78       5.26      19.45
N      31.66      19.40       7.03
N      23.53       4.79       6.55
N      24.74       5.24       6.72
N      39.41      19.87      19.92
N      40.62      19.42      19.76
N      32.68       5.81      20.33
N      16.80      18.85       6.15
N      43.40      25.70       7.09
N      43.91      26.88       6.84
N      43.40      26.47      19.39
N      43.91      25.29      19.64
N      35.46       6.19      27.38
N      35.97       5.94      26.20
N      35.46      18.48      26.60
N      20.09      18.73       0.28
N      35.61      12.72       5.63
N      35.10      11.54       5.89
N      19.73      11.94      20.84
N      50.98      13.13      20.59
N      11.79       4.72      12.86
N      11.28       4.97      14.04
N      27.67      19.94      13.63
N      27.16      19.68      12.44
