18

C       7.14       4.21       8.40
C       9.32       4.67       9.59
C       7.91       4.67       9.59
O      12.09       4.26       9.99
H       9.86       5.96      12.71
O       5.89       4.00       8.54
O       7.75       4.07       7.29
H       9.86       4.31       8.72
H       6.14       5.12      10.72
C      11.51       5.14      10.72
C      10.01       5.14      10.72
C       7.22       5.13      10.72
C       7.15       6.03      13.04
C       9.32       5.60      11.84
C       7.91       5.59      11.84
O      12.09       6.00      11.46
O       5.90       6.26      12.91
O       7.76       6.13      14.16
