18

O       4.30       8.52      13.53
O       4.05      14.69      12.12
O       4.17      12.83      10.86
H       5.99      10.72      16.29
H       4.35      10.73      12.30
C       5.16       9.08      14.29
C       5.17      10.57      14.30
C       5.18      13.36      14.30
H       5.18      14.44      14.30
C       6.08      13.43      16.61
C       5.64      11.26      15.42
C       5.63      12.66      15.42
O       6.02       8.48      15.02
O       6.31      14.68      16.49
O       6.18      12.81      17.73
C       4.28      13.44      11.98
C       4.71      11.27      13.17
C       4.72      12.67      13.17
