16

C       4.11      10.72      16.86
C       3.35      11.83      16.16
C       3.81      12.45      14.98
C       3.05      13.50      14.44
O       3.52      10.32      18.05
C       1.46      13.23      16.22
C       1.85      13.87      15.06
C       3.46      14.23      13.21
O       4.59      13.94      12.68
O       2.71      15.16      12.76
H       5.16      11.09      16.99
H       4.20       9.86      16.18
H       4.68      12.08      14.46
H       1.23      14.63      14.59
N       2.21      12.23      16.76
H       0.60      13.53      16.81
