16

C       1.35      15.00       4.48
C       0.58      14.53       3.40
C      -0.61      15.17       3.07
C      -1.00      16.28       3.79
C       0.96      13.33       2.60
N      -0.25      16.75       4.83
H       1.71      16.01       7.16
H       2.70      16.90       6.02
H       2.22      14.45       4.81
H      -1.23      14.76       2.28
O       1.06      17.93       6.84
O       2.06      12.74       2.89
O       0.20      12.94       1.67
H      -1.86      16.89       3.53
C       1.64      16.76       6.35
C       0.89      16.14       5.18
