16

H       1.71       0.97      10.01
H       2.70       0.08      11.16
H       2.22       2.53      12.36
N      -0.25       0.24      12.35
H      -1.86       0.09      13.64
H      -1.23       2.23      14.90
C       1.64       0.22      10.82
O       1.06      -0.94      10.34
C       0.89       0.85      11.99
C       1.35       1.98      12.69
C      -0.61       1.81      14.10
C      -1.00       0.70      13.38
C       0.58       2.45      13.77
C       0.96       3.66      14.57
O       2.06       4.25      14.29
O       0.20       4.05      15.50
