20

C       7.05       7.90       8.32
H       7.87       6.59      10.52
H       7.92       9.40       7.01
C       5.97       7.02       8.51
C       7.09       8.73       7.21
H       4.02       6.52       7.66
H       7.65       5.09      12.43
C       4.93       7.10       7.57
C       5.04       7.95       6.48
C       6.96       6.01      10.60
C       4.80       4.38      10.97
H       4.24       8.02       5.75
H       4.02       5.17       9.14
C       6.85       5.15      11.69
C       5.92       6.08       9.66
N       6.12       8.73       6.27
H       3.97       3.71      11.16
N       5.77       4.38      11.90
C       4.84       5.20       9.85
H       7.88       7.93       9.03
