896

H       3.20      11.91      18.69
H      31.97       6.50      24.47
H      32.06       7.09      19.75
H      -0.26       8.64      18.28
H       1.98       9.89      24.89
H       3.26      11.16      23.39
H       4.28      12.82      21.31
H      -0.12       9.38      25.99
H      30.81       5.53      22.26
H       1.28       9.95      16.90
H      19.49      35.74      39.60
H      15.14      41.21      33.71
H      15.10      40.60      38.43
H      16.05      39.04      39.92
H      18.46      37.79      33.37
H      19.69      36.51      34.91
H      20.65      34.79      37.19
H      16.39      38.33      32.22
H      13.92      42.16      35.89
H      17.54      37.71      41.34
H      13.08      35.76      18.17
H      16.69      41.62      24.17
H      17.31      40.69      19.55
H      16.51      39.08      18.04
H      13.55      38.02      24.40
H      12.50      36.63      22.81
H      11.74      34.83      20.44
H      14.25      39.90      25.67
H      18.30      42.29      21.98
H      15.00      37.79      16.53
H      29.33      11.89      39.95
H      -0.17       6.08      34.03
H       0.31       6.98      38.68
H      -0.55       8.59      40.17
H      29.99       9.66      33.73
H      28.89      11.03      35.29
H      28.08      12.82      37.55
H      30.75       7.79      32.46
H       1.38       5.41      36.27
H      31.22       9.86      41.64
H      29.16      35.90      39.58
H       0.48      41.21      33.76
H       0.47      40.55      38.47
H      -0.56      39.03      39.94
H      30.32      37.95      33.37
H      29.02      36.71      34.89
H      27.92      35.05      37.19
H      32.41      38.38      32.24
H       1.76      41.96      36.24
H      31.19      37.77      41.34
H      12.87      11.82      18.57
H      17.31       6.47      24.49
H      17.44       7.14      19.79
H      16.46       8.67      18.29
H      13.86       9.75      24.80
H      12.62      11.00      23.25
H      11.56      12.68      20.88
H      15.92       9.29      25.98
H      18.67       5.72      22.05
H      14.93       9.94      16.85
H      19.27      11.94      39.99
H      15.58       6.04      34.08
H      14.88       7.14      38.66
H      15.69       8.78      40.13
H      18.84       9.53      33.82
H      19.90      10.91      35.39
H      20.76      12.70      37.75
H      18.09       7.61      32.57
H      13.92       5.61      36.69
H      17.18      10.07      41.63
H       3.01      35.78      18.32
H      32.44      41.64      24.16
H      31.87      40.56      19.55
H      32.74      38.93      18.10
H       2.41      38.19      24.49
H       3.53      36.82      22.94
H       4.45      35.03      20.61
H       1.59      40.11      25.72
H      30.85      42.08      21.50
H       0.95      37.65      16.63
H       1.89      33.93      47.53
H      30.75      28.61      53.47
H      30.70      29.19      48.75
H      31.71      30.68      47.24
H       0.88      31.90      53.77
H       2.10      33.18      52.23
H       2.98      34.99      49.69
H      32.15      31.40      54.95
H      29.32      27.91      51.31
H      -0.06      31.92      45.80
H      19.20      13.74      10.79
H      14.96      19.09       4.72
H      14.76      18.50       9.44
H      15.72      17.00      10.97
H      18.39      15.77       4.52
H      19.55      14.48       6.10
H      20.38      12.69       8.71
H      16.38      16.30       3.28
H      13.47      19.79       6.85
H      17.21      15.76      12.46
H      11.97      13.71      47.36
H      15.78      19.60      53.21
H      16.34      18.58      48.60
H      15.48      16.97      47.13
H      12.56      16.09      53.53
H      11.48      14.69      51.99
H      10.81      12.80      49.88
H      13.29      18.03      54.75
H      17.43      20.12      50.95
H      14.12      15.73      45.71
H      29.26      33.92      10.79
H      -0.03      28.10       5.01
H       0.39      29.10       9.65
H      32.79      30.70      11.10
H      30.04      31.58       4.63
H      28.90      32.96       6.14
H      28.15      34.80       8.17
H      30.84      29.65       3.42
H       1.55      27.57       7.33
H      31.41      31.93      12.49
H      31.08      13.22      10.34
H       1.53      19.49       4.85
H       1.15      18.91       9.56
H       0.33      17.22      10.97
H      32.25      15.53       4.23
H      31.20      13.99       5.64
H      29.99      12.19       7.61
H       0.90      16.44       3.29
H       2.47      20.36       7.57
H      32.37      15.65      12.26
H      13.75      34.47      47.76
H      17.27      28.19      53.39
H      17.09      28.78      48.67
H      16.33      30.48      47.23
H      14.67      32.16      53.92
H      13.69      33.71      52.47
H      12.56      35.51      50.46
H      16.60      31.23      54.94
H      18.33      27.33      50.69
H      15.10      32.05      45.90
H      19.81      35.02      10.16
H      16.68      28.22       5.10
H      15.89      29.80       9.54
H      16.73      31.55      10.86
H      20.17      31.47       4.67
H      21.15      33.07       6.11
H      21.99      33.72      10.36
H      19.36      29.20       3.62
H      14.98      27.72       7.68
H      18.46      32.61      12.19
H       2.49      12.68      48.15
H      -0.78      19.48      53.12
H      31.82      17.86      48.68
H      -0.63      16.11      47.38
H       2.78      16.30      53.60
H       3.79      14.70      52.18
H       4.62      14.00      47.94
H       1.81      18.68      54.64
H      30.86      19.93      50.52
H       1.17      15.08      46.09
H      -0.10       5.54      28.33
H      32.42      11.07      29.68
H      -0.08      10.53      31.16
H      31.47      10.35      30.99
H      16.59      42.16      29.89
H      15.74      36.66      28.51
H      16.62      37.17      27.06
H      14.86      37.39      27.17
H      32.63      42.21      29.90
H      -0.22      36.65      28.56
H      32.30      37.22      27.08
H       0.76      37.31      27.24
H      15.90       5.46      28.32
H      16.50      11.00      29.69
H      15.62      10.46      31.13
H      17.39      10.31      31.05
H      32.14      27.56      57.28
H      32.54      33.09       0.64
H       0.05      32.54       2.11
H      31.60      32.38       1.97
H      16.58      20.15       0.97
H      14.79      14.64      57.57
H      15.69      15.16      56.14
H      13.93      15.37      56.21
H       1.08      20.18       0.85
H      -0.22      14.58      57.67
H      -0.90      15.21      56.16
H       0.86      15.06      56.36
H      16.46      27.46      57.36
H      17.56      33.07       0.56
H      16.76      32.48       2.03
H      18.53      32.51       1.93
H       0.43      11.36      12.76
H      -0.25      15.65      16.50
H       1.04      14.77      17.34
H      32.66      14.30      17.57
H      16.53      36.32      45.45
H      15.94      32.04      41.68
H      17.27      32.90      40.89
H      15.58      33.39      40.60
H      16.55      36.68      12.54
H      17.38      32.40      16.25
H      15.88      33.04      16.93
H      17.44      33.75      17.40
H      -0.68      10.99      45.68
H       0.23      15.28      41.99
H      32.06      14.62      41.27
H       0.33      13.93      40.84
H      32.24      36.31      45.43
H      32.49      32.02      41.64
H      31.21      32.96      40.87
H      -0.40      33.35      40.55
H      16.13      11.37      12.80
H      16.32      15.67      16.59
H      14.99      14.75      17.32
H      16.68      14.34      17.69
H      15.59      11.46      45.56
H      15.18      15.62      41.64
H      16.65      14.84      41.03
H      15.06      14.23      40.55
H      32.80      36.21      12.67
H      32.34      32.07      16.60
H       0.47      32.87      17.24
H      32.16      33.46      17.68
H       1.12       3.13      21.02
H      29.11       1.62      22.49
H      29.98       0.23      23.13
H      29.43       0.24      21.43
H      17.51       0.72      37.22
H      12.20       2.22      35.68
H      13.08       3.62      35.06
H      12.50       3.59      36.75
H      14.81       1.12      20.94
H      20.21       2.21      22.47
H      19.42       3.60      23.24
H      19.95       3.69      21.54
H      31.19       2.73      37.26
H       3.30       1.63      35.79
H       2.52       0.24      35.02
H       3.04       0.16      36.72
H      32.16      25.05      49.24
H      26.70      24.66      50.96
H      27.15      22.95      51.11
H      26.60      23.60      49.55
H      16.28      22.64       8.97
H      10.83      23.02       7.20
H      11.28      24.73       7.07
H      10.72      24.08       8.62
H      14.09      23.04      50.08
H      19.60      23.74      51.44
H      18.95      25.21      52.18
H      19.45      25.20      50.47
H      31.51      24.63       8.08
H       3.75      23.96       6.88
H       3.13      22.49       6.11
H       3.57      22.49       7.84
H       8.99       8.98      20.58
H       7.73      14.48      21.51
H       6.31      13.78      22.30
H       6.31      14.06      20.54
H      25.32      38.73      37.61
H      24.09      33.23      36.59
H      22.63      33.93      35.89
H      22.72      33.60      37.64
H       7.03      38.70      20.02
H       8.33      33.28      21.31
H       9.81      34.04      21.93
H       9.68      33.59      20.21
H      23.33       9.01      38.23
H      24.65      14.43      36.98
H      26.08      13.67      36.28
H      26.04      14.08      38.01
H       8.12      32.09      49.90
H       5.50      36.66      52.13
H       4.14      35.54      52.19
H       4.46      36.49      50.72
H      25.52      15.54       8.52
H      22.86      11.05       6.16
H      21.52      12.19       6.10
H      21.80      11.21       7.56
H       5.94      15.35      51.15
H       7.85      11.38      47.56
H       9.19      11.43      48.71
H       9.13      12.59      47.36
H      23.25      32.34       7.14
H      25.29      36.30      10.67
H      26.62      36.20       9.51
H      26.53      35.06      10.87
C       1.26       9.65      21.13
C       0.94       9.64      19.73
C       1.58      10.56      18.86
C       2.66      11.33      19.34
C       3.05      11.28      20.70
C       2.29      10.51      21.61
C      -0.01       8.70      19.27
C       2.54      10.55      23.00
C       0.56       8.80      22.04
C      -0.34       7.81      21.53
C      32.35       6.90      22.44
C      32.48       7.12      23.82
C      -0.02       8.14      24.35
C       0.76       8.92      23.44
C      32.72       7.76      20.14
C       1.76       9.81      23.90
C       4.25      11.88      21.03
C      -0.09       8.42      25.71
C      31.76       5.71      22.04
C       1.24      10.73      17.52
C      17.64      38.03      37.12
C      17.28      38.04      38.50
C      17.89      37.11      39.39
C      18.98      36.33      38.93
C      19.40      36.38      37.59
C      18.68      37.17      36.66
C      16.32      38.98      38.94
C      18.96      37.13      35.28
C      16.97      38.89      36.19
C      16.06      39.88      36.67
C      15.47      40.80      35.76
C      15.63      40.59      34.37
C      16.46      39.56      33.87
C      17.21      38.77      34.79
C      15.77      39.92      38.05
C      18.21      37.87      34.36
C      20.61      35.77      37.29
C      16.43      39.28      32.50
C      14.86      41.98      36.14
C      17.51      36.94      40.72
C      14.69      38.15      20.73
C      15.16      38.12      19.38
C      14.62      37.17      18.46
C      13.53      36.37      18.86
C      12.99      36.45      20.16
C      13.63      37.28      21.12
C      16.14      39.05      18.99
C      13.23      37.27      22.48
C      15.25      39.06      21.67
C      16.19      40.04      21.23
C      16.67      41.02      22.15
C      16.33      40.91      23.51
C      15.46      39.91      23.99
C      14.86      39.02      23.04
C      16.61      40.03      19.89
C      13.86      38.09      23.43
C      11.78      35.82      20.39
C      15.19      39.89      25.35
C      17.33      42.17      21.78
C      15.08      37.02      17.16
C      31.02       9.52      37.43
C      31.45       9.55      38.80
C      30.89      10.49      39.70
C      29.80      11.28      39.28
C      29.31      11.21      37.96
C      29.97      10.39      37.01
C      32.43       8.61      39.21
C      29.62      10.40      35.64
C      31.62       8.61      36.50
C      32.55       7.64      36.96
C      -0.24       6.67      36.06
C      -0.55       6.78      34.68
C      31.91       7.79      34.19
C      31.27       8.66      35.12
C      -0.38       7.65      38.32
C      30.28       9.59      34.71
C      28.10      11.84      37.70
C      31.68       7.81      32.81
C       0.41       5.51      36.44
C      31.31      10.63      41.02
C      31.14      38.11      37.12
C      31.48      38.10      38.51
C      30.82      37.19      39.39
C      29.71      36.47      38.92
C      29.29      36.55      37.57
C      30.06      37.31      36.65
C      32.48      38.99      38.95
C      29.78      37.29      35.26
C      31.85      38.95      36.20
C      -0.51      39.89      36.70
C       0.12      40.79      35.80
C      -0.05      40.60      34.41
C      32.40      39.61      33.89
C      31.61      38.85      34.80
C      -0.23      39.91      38.08
C      30.57      38.01      34.36
C      28.05      36.03      37.27
C      32.44      39.34      32.52
C       0.77      41.94      36.20
C      31.19      37.00      40.71
C      14.77       9.59      21.07
C      15.16       9.61      19.69
C      14.52      10.51      18.80
C      13.40      11.24      19.24
C      12.95      11.16      20.57
C      13.69      10.40      21.52
C      16.16       8.71      19.27
C      13.37      10.42      22.89
C      15.46       8.75      22.00
C      16.41       7.80      21.53
C      17.02       6.89      22.45
C      16.81       7.08      23.83
C      15.94       8.07      24.33
C      15.18       8.84      23.40
C      16.73       7.78      20.16
C      14.14       9.69      23.82
C      11.70      11.69      20.85
C      15.94       8.34      25.70
C      17.68       5.75      22.06
C      14.93      10.70      17.48
C      17.61       9.56      37.46
C      17.11       9.65      38.80
C      17.65      10.61      39.70
C      18.80      11.33      39.31
C      19.37      11.19      38.02
C      18.71      10.37      37.06
C      16.08       8.76      39.18
C      19.14      10.32      35.72
C      17.03       8.63      36.53
C      16.05       7.69      36.97
C      15.58       6.70      36.08
C      15.95       6.76      34.72
C      16.85       7.72      34.24
C      17.46       8.62      35.16
C      15.60       7.77      38.31
C      18.50       9.50      34.78
C      20.63      11.72      37.82
C      17.14       7.70      32.87
C      14.89       5.57      36.49
C      17.17      10.82      40.98
C       1.28      38.16      20.82
C       0.81      38.07      19.47
C       1.39      37.11      18.58
C       2.53      36.39      19.00
C       3.06      36.53      20.30
C       2.38      37.36      21.24
C      -0.21      38.95      19.06
C       2.77      37.41      22.59
C       0.67      39.08      21.73
C      -0.31      40.01      21.27
C      32.50      41.00      22.15
C      32.83      40.93      23.52
C       0.41      39.97      24.02
C       1.06      39.09      23.11
C      32.59      39.93      19.92
C       2.10      38.22      23.52
C       4.32      36.01      20.53
C       0.66      39.99      25.39
C      31.82      42.12      21.72
C       0.93      36.90      17.28
C       0.04      31.66      50.03
C      -0.32      31.64      48.65
C       0.31      32.55      47.74
C       1.39      33.33      48.20
C       1.80      33.31      49.55
C       1.08      32.52      50.48
C      32.00      30.73      48.22
C       1.37      32.57      51.87
C      -0.65      30.82      50.97
C      31.71      29.87      50.50
C      31.07      29.00      51.43
C      31.27      29.19      52.81
C      32.16      30.17      53.30
C      -0.39      30.94      52.37
C      31.41      29.83      49.12
C       0.63      31.82      52.79
C       2.95      34.02      49.86
C      32.15      30.45      54.67
C      30.28      27.93      51.05
C      -0.07      32.70      46.41
C      17.44      16.02       8.24
C      17.04      16.03       9.61
C      17.63      15.13      10.53
C      18.72      14.34      10.11
C      19.18      14.36       8.78
C      18.49      15.15       7.82
C      16.03      16.95      10.00
C      18.82      15.10       6.44
C      16.78      16.86       7.28
C      15.82      17.82       7.72
C      15.22      18.70       6.77
C      15.46      18.51       5.40
C      16.36      17.52       4.93
C      17.08      16.75       5.89
C      15.47      17.85       9.09
C      18.11      15.85       5.50
C      20.34      13.66       8.50
C      16.40      17.25       3.57
C      14.43      19.77       7.13
C      17.21      14.98      11.85
C      13.66      16.13      49.84
C      14.10      16.07      48.49
C      13.53      15.12      47.59
C      12.43      14.34      48.03
C      11.94      14.44      49.34
C      12.59      15.28      50.28
C      15.12      16.97      48.08
C      12.21      15.31      51.64
C      14.25      17.05      50.77
C      15.22      18.00      50.30
C      15.74      18.97      51.20
C      15.40      18.90      52.57
C      14.50      17.93      53.06
C      13.87      17.04      52.15
C      15.62      17.94      48.95
C      12.87      16.14      52.56
C      10.77      13.76      49.63
C      14.23      17.95      54.43
C      16.45      20.08      50.80
C      13.94      14.93      46.27
C      31.04      31.53       8.34
C      31.45      31.59       9.71
C      30.85      32.53      10.60
C      29.75      33.29      10.14
C      29.29      33.20       8.81
C      29.98      32.37       7.89
C      32.46      30.69      10.14
C      29.64      32.35       6.51
C      31.67      30.63       7.43
C      32.63      29.68       7.91
C      33.18      28.72       7.03
C      32.88      28.80       5.65
C      31.99      29.76       5.14
C      31.32      30.64       6.04
C      33.00      29.73       9.28
C      30.32      31.53       5.61
C      28.12      33.86       8.50
C      31.77      29.75       3.76
C       0.57      27.60       7.44
C      31.22      32.72      11.93
C      32.61      15.91       8.04
C      32.79      15.99       9.45
C      32.28      14.96      10.30
C      31.49      13.94       9.73
C      31.26      13.87       8.34
C      31.86      14.83       7.48
C       0.18      17.11       9.97
C      31.74      14.74       6.08
C      -0.11      16.89       7.17
C       0.54      18.02       7.72
C       1.07      19.02       6.86
C       1.08      18.80       5.46
C       0.49      17.65       4.89
C      33.13      16.73       5.75
C       0.66      18.12       9.13
C      32.38      15.65       5.23
C      30.51      12.88       7.91
C       0.70      17.38       3.54
C       1.53      20.25       7.30
C      32.55      14.87      11.66
C      15.19      31.79      50.13
C      15.42      31.70      48.72
C      14.95      32.73      47.85
C      14.13      33.75      48.39
C      13.85      33.82      49.77
C      14.42      32.87      50.65
C      16.14      30.59      48.23
C      14.24      32.95      52.05
C      15.74      30.80      51.01
C      16.42      29.66      50.49
C      16.90      28.66      51.37
C      16.85      28.88      52.76
C      16.24      30.03      53.31
C      15.61      30.95      52.43
C      16.59      29.57      49.09
C      14.84      32.04      52.92
C      13.09      34.81      50.17
C      16.39      30.29      54.67
C      17.38      27.44      50.94
C      15.26      32.82      46.50
C      18.86      31.86       8.26
C      18.28      32.16       9.54
C      18.73      33.28      10.29
C      19.57      34.18       9.68
C      20.54      33.64       8.74
C      19.97      32.62       7.81
C      17.19      31.37       9.97
C      20.41      32.47       6.48
C      18.28      30.86       7.41
C      17.20      30.07       7.88
C      16.64      29.07       7.04
C      17.11      28.92       5.72
C      18.15      29.74       5.21
C      18.76      30.70       6.07
C      16.69      30.33       9.18
C      19.82      31.53       5.63
C      21.92      33.38       9.32
C      18.47      29.58       3.87
C      15.67      28.28       7.41
C      18.49      33.43      11.63
C       1.48      15.85      50.01
C       0.93      15.54      48.73
C       1.39      14.41      47.99
C       2.21      13.51      48.63
C       3.18      14.08      49.56
C       2.60      15.11      50.47
C      -0.17      16.31      48.28
C       3.04      15.28      51.80
C       0.89      16.84      50.85
C      -0.20      17.62      50.35
C      -0.78      18.62      51.19
C      -0.33      18.78      52.51
C       0.71      17.98      53.03
C       1.36      17.03      52.18
C      -0.70      17.35      49.06
C       2.43      16.22      52.64
C       4.56      14.34      48.98
C       1.01      18.15      54.37
C      31.55      19.39      50.80
C       1.20      14.26      46.65
C      -0.32       7.62      27.92
C      32.62       8.96      29.89
C      32.68       7.79      30.69
C      -0.26       6.47      28.73
C      32.43      10.30      30.46
C      16.31      40.09      30.28
C      15.99      38.76      28.30
C      16.11      39.93      27.51
C      16.42      41.24      29.48
C      15.79      37.41      27.73
C      32.73      40.12      30.30
C      -0.31      38.76      28.34
C      -0.30      39.93      27.53
C      32.74      41.28      29.49
C      -0.19      37.41      27.77
C      16.10       7.54      27.92
C      16.33       8.89      29.90
C      16.26       7.72      30.70
C      16.03       6.39      28.73
C      16.47      10.24      30.47
C      31.96      29.64      56.88
C      32.71      30.98       0.85
C      32.75      29.80       1.64
C      32.01      28.48      57.69
C      32.55      32.33       1.42
C      16.33      18.07       1.35
C      15.03      16.74      57.37
C      15.14      17.91      56.59
C      16.44      19.23       0.55
C      14.85      15.40      56.79
C       0.90      18.12       1.31
C      -0.02      16.68      57.39
C       0.18      17.81      56.56
C       1.08      19.23       0.47
C      -0.07      15.30      56.87
C      16.44      29.54      56.91
C      17.61      30.95       0.84
C      17.68      29.81       1.67
C      16.50      28.41      57.75
C      17.61      32.33       1.37
C      -0.03      13.35      13.36
C       0.18      13.71      15.73
C       0.57      12.36      15.90
C       0.36      12.00      13.55
C       0.07      14.66      16.85
C      16.07      34.34      44.83
C      16.36      33.97      42.47
C      16.78      35.32      42.31
C      16.48      35.68      44.66
C      16.28      33.02      41.35
C      17.24      34.77      13.16
C      16.77      34.28      15.47
C      16.15      35.55      15.62
C      16.62      36.02      13.31
C      16.87      33.31      16.57
C       0.01      12.91      45.07
C      -0.39      13.39      42.75
C      32.32      12.12      42.59
C      -0.59      11.65      44.90
C      -0.26      14.36      41.65
C      -0.76      34.31      44.79
C      32.20      33.97      42.44
C      31.86      35.34      42.29
C      32.23      35.67      44.64
C      32.20      33.02      41.31
C      16.46      13.38      13.45
C      16.02      13.72      15.78
C      15.67      12.36      15.92
C      16.10      12.02      13.59
C      16.00      14.68      16.91
C      15.07      13.39      44.83
C      15.64      13.74      42.52
C      16.16      12.42      42.44
C      15.59      12.09      44.75
C      15.63      14.67      41.37
C      32.28      34.28      13.39
C      32.79      33.95      15.72
C      -0.02      35.28      15.80
C      32.79      35.59      13.48
C      32.76      33.03      16.87
C      32.39       3.47      21.51
C      31.12       1.44      21.82
C      32.28       0.68      21.52
C       0.21       2.70      21.19
C      29.84       0.85      22.24
C      15.47       0.38      36.70
C      14.21       2.41      36.38
C      15.36       3.17      36.70
C      16.60       1.16      37.04
C      12.92       2.99      35.94
C      16.83       0.64      21.41
C      18.20       2.56      21.86
C      17.09       3.41      21.61
C      15.74       1.49      21.14
C      19.52       3.04      22.30
C      -0.10       3.21      36.82
C       1.28       1.28      36.38
C       0.17       0.43      36.62
C      32.13       2.36      37.07
C       2.61       0.80      35.95
C      30.36      25.74      50.14
C      28.57      24.14      50.09
C      29.42      23.23      49.41
C      31.19      24.82      49.47
C      27.17      23.82      50.45
C      14.49      21.95       8.06
C      12.69      23.55       8.10
C      13.54      24.46       8.78
C      15.31      22.87       8.73
C      11.30      23.86       7.72
C      16.09      22.42      50.46
C      17.61      24.24      50.86
C      16.56      25.17      50.66
C      15.05      23.35      50.24
C      18.98      24.62      51.26
C       0.20      25.26       7.75
C       1.74      23.45       7.39
C       0.68      22.52       7.56
C      32.48      24.33       7.94
C       3.13      23.08       7.03
C       9.41      11.03      20.95
C       7.44      12.40      21.18
C       6.63      11.25      20.98
C       8.59       9.90      20.76
C       6.92      13.76      21.40
C      25.75      36.68      37.22
C      23.79      35.30      37.00
C      22.97      36.44      37.22
C      24.92      37.80      37.43
C      23.28      33.93      36.77
C       6.62      36.66      20.49
C       8.60      35.32      20.76
C       9.41      36.45      20.47
C       7.43      37.78      20.23
C       9.14      33.98      21.07
C      22.93      11.05      37.78
C      24.92      12.38      37.47
C      25.72      11.24      37.73
C      23.74       9.92      38.02
C      25.45      13.72      37.17
C       8.00      34.00      50.82
C       5.76      34.85      51.02
C       5.27      33.68      50.38
C       7.50      32.84      50.20
C       4.92      35.95      51.54
C      25.38      13.64       7.55
C      23.14      12.82       7.31
C      22.65      13.98       7.98
C      24.89      14.79       8.19
C      22.28      11.76       6.75
C       5.69      13.71      49.77
C       7.81      12.99      48.94
C       8.42      14.00      49.67
C       6.41      14.69      50.58
C       8.53      12.05      48.10
C      23.05      34.00       8.51
C      25.20      34.68       9.31
C      25.77      33.65       8.57
C      23.74      33.00       7.69
C      25.95      35.61      10.13
N      32.78       8.81      28.55
N      -0.40       6.60      30.08
N      -0.19       7.51      26.61
N      32.69       7.81      32.01
N      16.09      38.90      29.65
N      16.34      41.11      28.13
N      16.39      40.20      31.60
N      16.16      39.91      26.19
N      -0.45      38.92      29.68
N      -0.46      41.14      28.15
N      32.60      40.25      31.62
N      -0.32      39.89      26.21
N      16.25       8.74      28.55
N      16.09       6.52      30.08
N      16.03       7.42      26.60
N      16.18       7.76      32.02
N      31.79      30.83      57.51
N      32.94      28.61       1.02
N      32.06      29.53      55.56
N      32.77      29.83       2.96
N      16.14      16.88       0.71
N      15.34      19.10      57.22
N      16.37      18.18       2.67
N      15.21      17.89      55.27
N       0.87      16.89       0.71
N       0.18      19.04      57.15
N       0.70      18.28       2.61
N       0.18      17.70      55.24
N      16.47      30.76      57.51
N      17.63      28.58       1.08
N      16.31      29.39      55.59
N      17.61      29.91       2.98
N      -0.11      14.14      14.47
N       0.65      11.56      14.80
N      32.98      13.76      12.14
N       0.90      11.90      17.10
N      16.03      33.55      43.72
N      16.82      36.11      43.42
N      15.72      33.93      46.04
N      17.15      35.78      41.12
N      17.29      33.96      14.25
N      16.10      36.36      14.52
N      17.76      34.45      11.98
N      15.63      35.92      16.78
N       0.09      13.72      43.98
N      32.24      11.30      43.68
N       0.49      13.24      46.26
N      31.84      11.74      41.41
N      -0.78      33.52      43.68
N      31.89      36.13      43.40
N      -0.40      33.87      45.99
N      31.51      35.82      41.11
N      16.40      14.17      14.55
N      15.72      11.57      14.81
N      16.86      13.81      12.26
N      15.27      11.88      17.10
N      15.11      14.16      43.70
N      16.12      11.66      43.57
N      14.54      13.82      45.97
N      16.69      11.97      41.31
N      32.31      33.52      14.52
N      -0.04      36.04      14.67
N      31.79      33.85      12.24
N       0.47      35.74      16.95
N      31.24       2.80      21.82
N       0.12       1.35      21.24
N      32.56       4.76      21.71
N      32.47      43.23      21.73
N      14.33       1.05      36.37
N      16.50       2.51      36.99
N      15.65      42.93      36.49
N      15.54       4.47      36.50
N      18.01       1.22      21.77
N      15.91       2.83      21.28
N      16.59      43.19      21.53
N      16.96       4.70      21.87
N       1.08       2.63      36.47
N      32.30       1.02      36.94
N      -0.34       4.50      36.67
N       0.05      42.98      36.37
N      29.09      25.36      50.42
N      30.70      23.61      49.13
N      30.85      26.91      50.50
N      29.06      22.09      49.07
N      13.21      22.33       7.77
N      14.81      24.08       9.07
N      14.98      20.78       7.70
N      13.16      25.60       9.13
N      17.32      22.91      50.78
N      15.32      24.67      50.38
N      15.76      21.15      50.60
N      16.55      26.46      50.92
N       1.44      24.78       7.47
N      32.76      23.01       7.81
N      -0.13      26.53       7.61
N       0.69      21.22       7.30
N       8.80      12.23      21.15
N       7.25      10.06      20.77
N      10.71      10.87      20.85
N       5.31      11.17      20.87
N      25.14      35.48      37.02
N      23.58      37.63      37.43
N      27.05      36.84      37.32
N      21.65      36.52      37.32
N       7.25      35.48      20.75
N       8.78      37.63      20.22
N       5.31      36.82      20.44
N      10.73      36.55      20.38
N      23.56      12.23      37.52
N      25.09      10.06      37.99
N      21.62      10.90      37.86
N      27.04      11.13      37.80
N       7.11      34.95      51.21
N       6.16      32.73      50.02
N       9.22      34.17      51.03
N       4.01      33.35      50.15
N      24.48      12.71       7.13
N      23.56      14.92       8.37
N      26.60      13.47       7.35
N      21.39      14.32       8.19
N       6.53      12.87      49.01
N       7.69      14.78      50.41
N       4.31      13.23      49.96
N       9.65      14.39      49.53
N      23.91      34.82       9.25
N      25.02      32.89       7.84
N      21.67      34.50       8.35
N      27.00      33.26       8.70
