69

O       2.27       2.27       6.43
O       1.28      -3.75       4.71
O      -0.86      -3.16       5.13
O       1.67       6.28      11.62
O       0.02       6.09      17.78
O       2.15       5.44      17.93
O       4.18       8.40       6.32
O       6.66      13.37       3.17
O       4.50      13.67       2.68
H       2.46       4.42       4.88
H       1.35       5.77       4.75
H       3.10       6.07       4.74
H       2.00       3.39      10.77
H       0.84       2.90       9.53
H       2.53       2.42       9.40
H       3.20       8.99       8.74
H       2.59       8.33      10.27
H       4.26       8.05       9.78
H       0.72       3.59       5.98
H       0.61       2.85       7.58
H       3.66       0.42       5.36
H       2.87      -1.89       4.79
H      -1.06      -0.89       6.15
H      -0.29       1.37       6.79
H       3.72       6.41      11.20
H       3.10       4.76      11.38
H      -0.35       7.07      12.97
H      -0.62       6.88      15.45
H       3.35       5.28      15.77
H       3.63       5.44      13.32
H       2.26       8.87       6.99
H       2.33       7.90       5.51
H       2.35      10.09       5.15
H       2.96      12.09       3.86
H       7.13      11.31       4.55
H       6.53       9.28       5.86
C       1.99       4.46       7.49
C       2.17       4.49       8.89
C       2.63       5.68       9.49
C       2.83       6.85       8.72
C       2.67       6.79       7.32
C       2.32       5.57       6.70
C       2.31       5.46       5.19
C       1.87       3.25       9.69
C       3.23       8.13       9.41
C       1.30       3.29       6.86
C       1.74       1.04       6.11
C       2.64       0.12       5.54
C       2.19      -1.16       5.23
C       0.86      -1.54       5.44
C      -0.03      -0.60       5.99
C       0.41       0.68       6.33
C       0.38      -2.90       5.08
C       2.88       5.75      10.97
C       1.64       6.23      12.98
C       0.45       6.67      13.59
C       0.30       6.57      14.97
C       1.34       6.05      15.77
C       2.54       5.67      15.16
C       2.70       5.75      13.78
C       1.14       5.87      17.22
C       2.79       8.04       6.50
C       4.41       9.54       5.59
C       3.39      10.34       5.03
C       3.74      11.47       4.29
C       5.08      11.83       4.10
C       6.09      11.03       4.68
C       5.76       9.90       5.41
C       5.43      13.00       3.30
