310

H       5.45      24.49       9.30
H       7.17      24.50       7.66
H       3.26       1.52       7.03
H       4.97       1.51       5.37
H       7.33       2.22       5.04
H       9.03       2.21       3.35
H       7.58      23.79       5.30
H       9.29      23.78       3.64
H      11.55       0.11       4.91
H      14.08       0.09       4.91
H      12.81       0.10       1.02
H      12.97       0.02      48.67
H       7.71       0.09       1.13
H       7.87       0.02      48.57
H       9.47       2.11      46.04
H       7.76       2.12      44.37
H       9.16      23.69      46.35
H       7.47      23.69      44.66
H      11.71       0.02      44.78
H      14.24       0.04      44.78
H      17.92       0.10       1.12
H      18.08       0.03      48.56
H      16.49      23.72      46.03
H      18.20      23.74      44.37
H      16.76       2.15      46.36
H      18.46       2.17      44.67
H      20.82       1.46      44.33
H      22.53       1.47      42.67
H      20.32      24.48      40.37
H      18.61      24.47      42.02
H      16.33       2.19       3.64
H      18.05       2.19       5.31
H      20.66      24.45       5.39
H      22.36      24.45       7.05
H      20.17       1.49       9.31
H      18.46       1.49       7.66
H      18.30      23.75       5.04
H      16.61      23.77       3.35
H       5.12      24.41      44.30
H       3.41      24.41      42.65
H       7.34       1.40      42.02
H       5.63       1.42      40.37
H      24.45      20.34      34.30
H      24.44      18.63      32.65
H       1.47      22.53      32.01
H       1.45      20.82      30.36
H       2.15      18.45      30.02
H       2.13      16.76      28.33
H      23.72      18.22      30.30
H      23.71      16.50      28.63
H      25.81      14.24      29.90
H      25.80      11.71      29.90
H      25.79      12.98      26.01
H      25.79      12.98      23.68
H      25.78      18.08      26.12
H      25.78      18.09      23.58
H       2.08      16.50      21.04
H       2.07      18.21      19.37
H      23.66      16.78      21.38
H      23.64      18.48      19.69
H      25.77      14.25      19.79
H      25.79      11.72      19.79
H      25.80       7.87      26.11
H      25.80       7.88      23.57
H      23.70       9.48      21.06
H      23.69       7.77      19.38
H       2.12       9.18      21.35
H       2.13       7.49      19.66
H       1.40       5.13      19.31
H       1.39       3.43      17.66
H      24.39       5.65      15.38
H      24.41       7.37      17.03
H       2.12       9.46      28.62
H       2.13       7.75      30.29
H      24.40       5.13      30.38
H      24.40       3.43      32.04
H       1.45       5.62      34.29
H       1.43       7.34      32.64
H      23.69       7.49      30.03
H      23.70       9.18      28.34
H      24.35      20.84      19.34
H      24.33      22.54      17.68
H       1.33      18.63      17.03
H       1.32      20.34      15.38
H      23.74      22.83      34.47
H      23.75      24.56      36.09
H       2.19      22.85      34.45
H       2.19      24.58      36.07
H       2.18       1.41      36.09
H       2.16       3.14      34.47
H      23.71       3.10      34.48
H      23.74       1.37      36.10
H      24.59       2.19      38.62
H      22.86       2.20      40.24
H      22.80      23.76      40.19
H      24.53      23.75      38.57
H       1.34      23.74      38.59
H       1.42       2.18      38.58
H       3.15       2.15      40.20
H       3.08      23.71      40.21
H      22.66       2.19       9.49
H      24.39       2.20      11.11
H      22.68      23.75       9.49
H      24.42      23.76      11.11
H       1.24      23.77      11.09
H       2.96      23.78       9.47
H       2.94       2.22       9.47
H       1.21       2.21      11.09
H       2.06       1.36      13.60
H       2.09       3.09      15.22
H      23.65       3.17      15.21
H      23.62       1.44      13.60
H      23.60      24.61      13.63
H       2.04      24.54      13.57
H       2.04      22.82      15.19
H      23.60      22.88      15.25
C      12.12       0.10       4.06
C      13.50       0.10       4.06
C      13.94       0.10       2.74
C      11.68       0.10       2.74
C      10.32       0.10       2.33
C       9.88       0.10       0.98
C      10.04       0.01      48.71
C       8.71       0.02      49.15
C       8.55       0.09       0.55
C      10.48       0.01      47.36
C      11.84       0.02      46.95
C      14.10       0.03      46.95
C      13.66       0.03      45.63
C      12.28       0.02      45.63
C      15.47       0.03      47.36
C      15.91       0.03      48.71
C      15.75       0.10       0.98
C      17.08       0.10       0.54
C      17.24       0.03      49.14
C      15.31       0.09       2.33
C      16.31       0.09       3.34
C      16.90      24.65       3.76
C      17.91      24.65       4.75
C      18.35       0.08       5.35
C      17.74       1.29       4.92
C      16.74       1.30       3.93
C      19.38       0.08       6.35
C      19.28       0.90       7.50
C      20.30       0.90       8.48
C      21.44       0.08       8.35
C      21.54      25.04       7.20
C      20.53      25.04       6.22
C      16.47       0.05      46.35
C      16.90      24.62      45.75
C      17.90      24.63      44.76
C      18.51       0.07      44.34
C      18.06       1.27      44.95
C      17.06       1.26      45.94
C      19.53       0.08      43.34
C      19.43      25.05      42.18
C      20.45      25.06      41.20
C      21.60       0.09      41.35
C      21.70       0.89      42.51
C      20.69       0.88      43.49
C       9.48       0.01      46.35
C       9.06       1.22      45.75
C       8.06       1.22      44.76
C       7.44       0.01      44.34
C       7.87      24.58      44.95
C       8.87      24.58      45.93
C       6.41       0.01      43.34
C       5.25      24.99      43.47
C       4.24      24.99      42.49
C       4.34       0.03      41.34
C       5.50       0.84      41.20
C       6.51       0.83      42.18
C       9.32       0.11       3.34
C       8.73       1.32       3.76
C       8.89      24.68       3.93
C       7.88      24.68       4.92
C       7.28       0.12       5.35
C       7.73       1.32       4.75
C       6.25       0.12       6.34
C       5.10       0.93       6.20
C       4.09       0.94       7.18
C       4.18       0.12       8.33
C       5.33      25.08       8.47
C       6.35      25.08       7.50
C      25.80      13.67      29.05
C      25.80      12.29      29.05
C      25.80      11.85      27.72
C      25.80      14.11      27.73
C      25.80      15.47      27.32
C      25.79      15.91      25.97
C      25.78      15.92      23.73
C      25.78      17.25      24.16
C      25.78      17.24      25.54
C      25.77      15.48      22.37
C      25.78      14.11      21.97
C      25.79      11.86      21.96
C      25.79      12.30      20.64
C      25.78      13.68      20.64
C      25.80      10.49      22.37
C      25.80      10.05      23.72
C      25.80      10.04      25.96
C      25.80       8.72      25.53
C      25.80       8.72      24.15
C      25.80      10.48      27.32
C      25.80       9.48      28.33
C      24.59       8.89      28.75
C      24.59       7.88      29.74
C      25.80       7.44      30.34
C       1.23       8.05      29.91
C       1.23       9.05      28.92
C      25.80       6.42      31.34
C       0.84       6.51      32.49
C       0.85       5.50      33.47
C      25.81       4.35      33.34
C      24.99       4.25      32.19
C      24.99       5.26      31.21
C      25.80       9.49      21.36
C      24.59       9.07      20.76
C      24.59       8.07      19.77
C      25.80       7.46      19.35
C       1.23       7.89      19.95
C       1.23       8.89      20.94
C      25.80       6.43      18.35
C      24.98       6.53      17.19
C      24.97       5.52      16.21
C      25.78       4.36      16.35
C       0.81       4.26      17.50
C       0.82       5.27      18.48
C      25.76      16.48      21.36
C       1.19      16.91      20.76
C       1.17      17.91      19.77
C      25.74      18.52      19.36
C      24.54      18.08      19.97
C      24.55      17.08      20.95
C      25.73      19.55      18.36
C      24.92      20.71      18.50
C      24.91      21.72      17.52
C      25.71      21.62      16.36
C       0.75      20.47      16.22
C       0.75      19.45      17.19
C      25.81      16.47      28.33
C       1.25      17.06      28.75
C      24.60      16.91      28.92
C      24.61      17.91      29.91
C      25.83      18.51      30.33
C       1.25      18.06      29.73
C      25.83      19.54      31.33
C       0.87      20.69      31.19
C       0.88      21.70      32.17
C      25.85      21.61      33.33
C      25.03      20.46      33.47
C      25.03      19.45      32.49
C       3.32       0.04      40.35
C       2.81       1.26      39.84
C       1.79       1.27      38.87
C       1.26       0.07      38.32
C       1.74      24.64      38.88
C       2.75      24.62      39.86
C      25.86       0.09      37.34
C      24.69       0.09      38.33
C      24.16      24.66      38.87
C      23.14      24.66      39.84
C      22.63       0.09      40.36
C      23.19       1.30      39.88
C      24.20       1.29      38.91
C      25.85       1.26      36.36
C      25.85      24.69      36.35
C      24.65      24.18      35.80
C      24.64      23.16      34.83
C      25.85      22.64      34.32
C       1.29      23.19      34.80
C       1.28      24.20      35.78
C       1.27       1.78      35.80
C       1.26       2.80      34.83
C      25.82       3.32      34.33
C      24.62       2.77      34.83
C      24.63       1.76      35.80
C      25.71      22.65      15.37
C       1.14      23.16      14.84
C       1.14      24.18      13.87
C      25.71      24.70      13.33
C      24.51      24.22      13.92
C      24.50      23.21      14.89
C      25.71       0.10      12.35
C      25.73       1.27      13.33
C      24.53       1.80      13.89
C      24.54       2.83      14.85
C      25.76       3.33      15.36
C       1.18       2.77      14.87
C       1.16       1.75      13.90
C       1.10       0.10      11.36
C      24.53       0.09      11.37
C      24.01       1.30      10.82
C      22.99       1.29       9.85
C      22.47       0.08       9.35
C      23.02      24.65       9.84
C      24.03      24.66      10.81
C       1.61      24.68      10.80
C       2.63      24.68       9.83
C       3.15       0.12       9.33
C       2.60       1.32       9.81
C       1.59       1.31      10.79
N      12.81       0.10       1.98
N      10.80       0.02      49.83
N      12.97       0.02      47.71
N      15.16       0.03      49.84
N      25.79      12.98      26.97
N      25.78      15.16      24.85
N      25.79      12.98      22.72
N      25.80      10.80      24.84
