40

Cd       0.01      10.31      13.81
Cd       0.01      14.05      15.35
O       0.07       9.48      11.61
O       0.07      14.87      17.55
C       1.32      11.18      16.30
C       0.85       8.51      11.88
C      -0.54       7.63      15.74
C      -1.27       6.60      16.36
C      -2.65       6.60      16.25
C      -3.30       7.62      15.53
C      -4.71       7.64      15.30
C      -5.29       8.62      14.54
C      -4.50       9.68      13.98
C      -5.07      10.72      13.22
C      -4.25      11.71      12.69
C      -2.87      11.64      12.93
C      -3.10       9.69      14.18
C      -2.48       8.63      14.95
H      -4.66      12.52      12.10
H      -2.18      12.39      12.54
H      -6.14      10.74      13.06
H      -6.36       8.62      14.34
H      -5.31       6.84      15.73
C       0.85      15.84      17.28
H       0.55       7.66      15.78
H      -0.74       5.81      16.90
C      -0.54      16.72      13.41
H      -3.25       5.80      16.70
C      -2.87      12.71      16.22
C      -3.10      14.66      14.97
C      -2.48      15.72      14.20
N      -1.13       8.62      15.08
N      -2.31      10.67      13.65
N      -1.13      15.73      14.08
N      -2.31      13.68      15.50
O       1.68      13.93      13.82
O       0.27      12.44      12.89
C       1.32      13.17      12.86
O       1.68      10.42      15.33
O       0.27      11.91      16.26
