84

H       5.20       7.26       9.40
H       8.09       2.90       3.39
H       5.90       8.63      -1.53
H       8.20       2.61       0.99
H       4.59       8.31       0.23
H       7.37       2.04      -0.95
H       3.16       2.24      -8.60
H       5.24       8.16      -8.50
H       5.46      10.04      -7.06
H       4.20      10.16      -4.84
H       2.74       8.29      -4.20
H       2.74       6.23      -5.56
H       6.25       1.89       7.56
H       6.76       0.13       5.91
H       5.69       0.18       3.69
H       3.93       1.86       3.17
H       5.57       7.47       7.00
H       3.42       3.64       4.80
H       3.96       2.84      -6.32
H       3.97       8.18       2.56
H       6.99       1.77      -3.32
H       3.66       6.35      -9.66
H       4.37       3.06       8.95
H       6.13       8.41      -3.94
C       6.26       6.25      -3.90
C       4.74       5.15       9.32
C       3.55       4.23      -9.35
C       6.15       6.51      -1.11
C       6.98       4.35       0.51
C       6.90       4.17      -0.89
C       5.86       6.54       0.26
C       6.51       5.27      -1.69
C       6.33       5.48       1.08
C       6.06       7.65      -1.94
C       7.62       3.44       1.37
C       6.19       7.52      -3.33
C       7.58       3.61       2.75
C       4.85       5.00      10.76
C       3.38       3.93     -10.76
C       5.04       7.53       0.83
C       7.12       2.92      -1.51
C       4.91       6.40       4.37
C       6.13       5.54       2.47
C       6.14       3.73      -5.03
C       6.60       4.74       4.69
C       6.14       6.04      -5.27
C       4.80       4.13       7.12
C       4.35       5.78      -7.70
C       4.58       4.03       8.50
C       3.86       5.53      -8.98
C       5.05       6.39       8.77
C       3.55       3.23      -8.38
C       5.27       6.51       7.40
C       6.42       5.12      -3.08
C       4.10       3.51      -7.13
C       5.19       5.39       6.57
C       4.79       4.70      -6.89
C       4.02       7.06      -7.10
C       4.65       8.20      -7.59
C       4.76       9.29      -6.75
C       4.08       9.33      -5.52
C       3.27       8.26      -5.14
C       5.24       6.48       3.01
C       3.26       7.11      -5.92
C       4.81       2.90       6.30
C       5.71       1.87       6.62
C       6.01       0.88       5.68
C       5.39       0.90       4.43
C       4.42       1.86       4.14
C       4.12       2.86       5.07
C       6.51       3.86      -3.67
C       4.67       7.45       2.18
C       6.89       2.76      -2.88
C       6.79       4.63       3.31
N       5.58       5.52       5.19
N       5.70       4.83      -5.73
O       6.28       2.54      -5.63
O       6.57       6.99      -6.13
O       7.40       4.05       5.53
O       6.03       5.12      11.26
O       2.19       3.79     -11.26
O       3.78       4.89      11.48
O       4.44       4.02     -11.48
O       3.93       7.18       4.88
