15

C      -1.93       7.42       8.83
C      -2.09       8.80       8.55
C       0.20       8.94       7.93
C      -1.02       9.58       8.08
C       0.38       7.56       8.24
C      -0.69       6.78       8.68
C       1.76       6.97       8.18
O       1.89       5.73       8.51
O       2.71       7.74       7.86
H       1.06       9.50       7.56
H      -1.14      10.64       7.85
H      -0.56       5.73       8.90
N      -3.40       9.09       8.78
N      -4.01       7.96       9.16
N      -3.16       6.94       9.21
