15

O       6.07       9.77       6.22
O       5.33       7.67       6.66
C       7.96       8.30       2.77
C       7.88       6.91       2.50
C       7.13       6.05       3.31
C       6.48       6.61       4.39
C       6.57       8.01       4.68
C       7.30       8.87       3.87
C       5.93       8.52       5.94
H       7.06       4.98       3.10
H       5.90       5.99       5.06
H       7.37       9.93       4.08
N       8.75       8.86       1.80
N       9.13       7.87       0.99
N       8.63       6.69       1.38
