20

C       9.61      11.29       0.98
C       8.97      10.06       1.08
C       9.70       8.91       1.42
C      11.07       9.08       1.70
C      11.64      10.34       1.60
H       9.06      12.18       0.69
H       7.91      10.01       0.85
H      11.69       8.24       2.01
H      12.69      10.53       1.83
C       9.17       5.19       1.00
C       9.81       6.42       1.08
C       9.07       7.57       1.42
C       7.70       7.40       1.71
C       7.14       6.13       1.63
H       9.72       4.30       0.71
H      10.87       6.47       0.85
H       7.09       8.24       2.02
H       6.09       5.94       1.85
N      10.93      11.43       1.23
N       7.85       5.05       1.26
