20

C       7.92       7.84      12.13
C       7.03       8.15      13.15
C       6.11       9.19      12.96
C       6.15       9.88      11.73
C       7.08       9.53      10.77
C       4.53       9.80      16.33
C       5.42       9.33      15.37
C       5.16       9.58      14.01
C       3.97      10.25      13.69
C       3.13      10.68      14.70
H       8.63       7.03      12.23
H       7.06       7.57      14.07
H       5.48      10.71      11.53
H       7.17      10.05       9.82
H       4.71       9.67      17.40
H       6.31       8.79      15.70
H       3.69      10.44      12.65
H       2.21      11.22      14.48
N       7.97       8.53      10.97
N       3.41      10.48      16.00
