9

Ga       6.13      -0.50       9.81
O       6.61      -1.92      10.93
O       7.36      -0.87       8.42
P       7.41       1.82      11.13
O       6.16       1.32      10.26
P       6.08      -1.80      12.43
P       8.25       0.14       7.60
O       4.36      -0.84       9.22
P       3.75      -0.27       7.86
