9

Ga       2.88       4.84       4.46
O       4.64       5.18       3.86
P       2.92       1.93       4.64
P       0.75       7.07       3.92
P       5.25       6.63       3.69
O       2.83       5.36       6.26
P       1.58       4.86       7.14
O       2.39       3.17       3.79
O       1.64       5.86       3.46
