9

Ga       1.62       1.95       7.32
P       2.92       1.93       4.64
O       2.11       3.63       7.99
O       2.85       0.93       8.32
P       1.58       4.86       7.14
P       3.75      -0.27       7.86
P      -0.76       0.16       8.09
O       1.67       1.43       5.52
O      -0.15       1.62       7.92
