19

N       1.66      -3.47       8.46
Ga       1.11      -2.17       6.92
N       0.77      -1.22       5.12
N       2.01      -3.62       5.69
P      -1.58      -3.74       7.78
P       3.75      -0.27       7.86
P      -0.76       0.16       8.09
O      -0.61      -3.17       6.70
H       2.33      -2.97       9.05
H       0.78      -3.68       8.98
H       1.30      -4.31       5.41
H       1.22      -0.29       5.14
O       2.97      -1.37       7.14
H      -0.24      -1.09       5.01
O       0.42      -0.84       8.14
C       2.26      -4.68       7.86
C       2.99      -4.32       6.56
C       2.48      -2.89       4.50
C       1.30      -2.05       4.00
