9

Ga      -1.64       7.30       1.97
O      -1.67       5.48       1.52
P      -1.58       8.59      -0.65
P      -3.75       6.66       4.18
P       0.75       7.07       3.92
O      -2.11       8.71       0.85
P      -2.92       4.97       0.65
O      -2.86       7.66       3.36
O       0.14       7.64       2.56
