14

Cd      10.94       2.06      10.42
C       8.45       0.24      10.06
C      11.07       1.81      13.57
N      10.77       2.74      12.66
O      11.07       4.12       9.14
N       8.63       1.72       9.90
O      12.97       3.17       9.88
C       7.79       2.40      10.93
C      11.92      -0.48       9.84
C      12.35       4.12       9.30
C       8.12       2.18       8.56
C      10.42       3.99      13.09
O      11.56       0.27       8.86
O      11.80      -0.08      11.05
