656

C       7.60      12.07      23.34
C       6.25      12.52      23.36
C       5.96      13.90      23.33
C       7.02      14.81      23.15
C       8.36      14.38      23.05
C       8.67      13.01      23.22
C       5.21      11.56      23.35
C      10.00      12.54      23.24
C       7.89      10.67      23.38
C       6.83       9.72      23.27
C       7.14       8.34      23.15
C       8.48       7.91      23.30
C       9.52       8.83      23.52
C       9.24      10.22      23.45
C       5.50      10.19      23.24
C      10.28      11.17      23.41
C      17.99      10.33      38.65
C      16.64       9.88      38.63
C      16.36       8.49      38.64
C      17.43       7.58      38.81
C      18.76       8.01      38.91
C      19.06       9.39      38.75
C      15.60      10.83      38.66
C      20.39       9.88      38.73
C      18.27      11.74      38.62
C      17.21      12.68      38.74
C      17.51      14.06      38.86
C      18.84      14.49      38.72
C      19.89      13.58      38.48
C      19.62      12.19      38.54
C      15.88      12.20      38.77
C      20.66      11.24      38.57
C      12.80      18.86      31.87
C      11.45      18.84      32.32
C      11.17      18.86      33.71
C      12.23      19.04      34.62
C      13.56      19.14      34.19
C      13.87      18.97      32.81
C      10.41      18.87      31.36
C      15.20      18.95      32.33
C      13.09      18.84      30.47
C      12.02      18.95      29.52
C      12.34      19.09      28.14
C      13.67      18.94      27.71
C      14.71      18.70      28.63
C      14.44      18.76      30.02
C      10.69      18.98      30.00
C      15.48      18.79      30.97
C       2.41       3.55      30.13
C       1.06       3.56      29.68
C       0.78       3.53      28.29
C       1.84       3.35      27.38
C       3.17       3.26      27.82
C       3.48       3.43      29.19
C       0.02       3.55      30.64
C       4.81       3.45      29.67
C       2.70       3.59      31.53
C       1.64       3.48      32.48
C       1.95       3.36      33.86
C       3.28       3.51      34.29
C       4.32       3.74      33.37
C       4.05       3.67      31.98
C       0.31       3.44      32.01
C       5.09       3.63      31.03
C      18.05      31.97       3.84
C      16.66      32.27       3.74
C      16.25      33.62       3.63
C      17.21      34.64       3.59
C      18.59      34.36       3.66
C      19.02      33.02       3.83
C      15.73      31.21       3.70
C      20.39      32.69       3.94
C      18.47      30.61       3.92
C      17.52      29.55       3.81
C      17.96      28.20       3.76
C      19.33      27.93       3.90
C      20.27      28.95       4.09
C      19.86      30.30       4.04
C      16.15      29.88       3.70
C       0.05      31.36       4.07
C       7.67      30.01      18.55
C       6.28      29.70      18.64
C       5.88      28.35      18.74
C       6.85      27.33      18.79
C       8.22      27.62      18.72
C       8.65      28.97      18.57
C       5.34      30.75      18.68
C      10.01      29.30      18.47
C       8.09      31.38      18.48
C       7.12      32.43      18.59
C       7.56      33.77      18.65
C       8.93      34.06      18.52
C       9.88      33.05      18.33
C       9.47      31.69      18.37
C       5.75      32.09      18.69
C      10.42      30.64      18.35
C       2.49      38.34      12.17
C       1.11      38.43      12.49
C       0.71      38.53      13.85
C       1.68      38.59      14.86
C       3.05      38.52      14.55
C       3.47      38.36      13.21
C       0.16      38.47      11.45
C       4.84      38.27      12.87
C       2.90      38.28      10.80
C       1.93      38.38       9.76
C       2.36      38.45       8.41
C       3.73      38.32       8.12
C       4.68      38.12       9.13
C       4.29      38.16      10.49
C       0.57      38.48      10.11
C       5.24      38.14      11.53
C      12.84      23.61      10.22
C      11.45      23.49       9.91
C      11.03      23.37       8.57
C      12.00      23.33       7.54
C      13.37      23.43       7.83
C      13.80      23.60       9.16
C      10.51      23.44      10.97
C      15.17      23.73       9.49
C      13.26      23.70      11.58
C      12.31      23.58      12.63
C      12.76      23.54      13.98
C      14.12      23.70      14.25
C      15.06      23.89      13.23
C      14.65      23.84      11.88
C      10.94      23.45      12.31
C      15.58      23.87      10.82
C      12.61       7.72      24.98
C      13.66       8.30      25.73
C      14.86       7.60      26.01
C      15.00       6.27      25.52
C      13.95       5.69      24.77
C      12.78       6.41      24.51
C      16.15       5.47      25.79
C      16.28       4.93      27.09
C      17.42       4.18      27.44
C      18.44       3.95      26.49
C      18.29       4.46      25.18
C      17.16       5.23      24.82
C      19.63       3.33      26.84
C      11.42       8.41      24.82
C       2.22      14.70      37.00
C       3.27      14.11      36.26
C       4.47      14.81      35.99
C       4.61      16.14      36.46
C       3.57      16.73      37.21
C       2.39      16.02      37.47
C       5.77      16.93      36.20
C       5.92      17.47      34.90
C       7.06      18.21      34.55
C       8.08      18.44      35.51
C       7.91      17.93      36.81
C       6.77      17.17      37.18
C       9.27      19.05      35.16
C       1.02      14.02      37.17
C      17.79      17.22      27.51
C      18.84      16.47      28.09
C      20.04      16.19      27.40
C      20.18      16.67      26.06
C      19.13      17.42      25.48
C      17.96      17.69      26.19
C       0.58      16.40      25.27
C       0.72      15.10      24.72
C       1.86      14.75      23.98
C       2.88      15.70      23.75
C       2.72      17.01      24.25
C       1.59      17.38      25.03
C       4.06      15.35      23.13
C      16.60      17.39      28.19
C       7.42       5.20      34.48
C       8.47       5.95      33.89
C       9.67       6.22      34.59
C       9.81       5.73      35.92
C       8.76       4.99      36.51
C       7.58       4.73      35.80
C      10.96       6.00      36.71
C      11.11       7.29      37.25
C      12.26       7.64      37.99
C      13.27       6.68      38.22
C      13.11       5.38      37.71
C      11.97       5.01      36.94
C      14.47       7.03      38.83
C       6.22       5.04      33.80
C       2.60      27.80       5.44
C       3.70      28.26       6.19
C       4.83      27.43       6.44
C       4.81      26.10       5.93
C       3.71      25.64       5.17
C       2.62      26.48       4.93
C       5.83      25.16       6.22
C       5.84      24.59       7.52
C       6.86      23.71       7.90
C       7.89      23.38       6.99
C       7.84      23.90       5.68
C       6.83      24.80       5.27
C       9.04      22.77       7.42
C       1.45      28.55       5.34
C      12.95      34.19      16.98
C      14.06      33.72      16.25
C      15.19      34.53      16.00
C      15.19      35.87      16.50
C      14.08      36.35      17.24
C      12.98      35.52      17.48
C      16.22      36.79      16.21
C      16.25      37.35      14.91
C      17.29      38.21      14.52
C      18.31      38.53      15.44
C      18.25      38.03      16.76
C      17.21      37.15      17.16
C      19.48      39.12      15.01
C      11.80      33.44      17.08
C       7.76      36.77       7.98
C       8.87      36.03       8.46
C      10.00      35.78       7.64
C       9.99      36.27       6.30
C       8.89      37.02       5.83
C       7.79      37.26       6.66
C      11.02      35.97       5.37
C      11.04      34.67       4.82
C      12.07      34.28       3.96
C      13.10      35.20       3.62
C      13.04      36.51       4.13
C      12.02      36.92       5.01
C      14.26      34.76       3.04
C       6.61      36.87       8.74
C      18.12      25.26      14.38
C      19.24      25.99      13.90
C      20.37      26.23      14.72
C      20.35      25.74      16.06
C      19.24      25.01      16.54
C      18.14      24.77      15.71
C       0.63      26.02      16.99
C       0.67      27.31      17.55
C       1.71      27.69      18.41
C       2.72      26.77      18.74
C       2.65      25.45      18.23
C       1.62      25.06      17.34
C       3.89      27.19      19.32
C      16.97      25.16      13.62
C       4.83       0.27      17.37
C       6.03       0.90      17.78
C       6.05       1.99      18.68
C       4.81       2.47      19.21
C       3.61       1.85      18.81
C       3.62       0.75      17.93
C       4.72       3.61      20.07
C       5.18       4.85      19.57
C       5.28       5.98      20.40
C       4.89       5.90      21.75
C       4.31       4.71      22.22
C       4.21       3.56      21.40
C       5.19       6.93      22.63
C       4.85      38.90      16.35
C      15.14      22.15       4.99
C      16.34      21.51       4.61
C      16.36      20.41       3.72
C      15.12      19.93       3.17
C      13.92      20.58       3.55
C      13.93      21.68       4.41
C      15.04      18.79       2.32
C      15.48      17.55       2.84
C      15.59      16.42       2.01
C      15.23      16.49       0.65
C      14.66      17.68       0.16
C      14.55      18.83       0.98
C      15.55      15.46      39.35
C      15.15      23.09       6.01
C      10.00      24.81      20.05
C      11.20      24.42      20.68
C      11.22      23.52      21.78
C       9.99      22.98      22.26
C       8.78      23.37      21.62
C       8.79      24.24      20.53
C       9.90      22.13      23.40
C      10.35      22.64      24.64
C      10.45      21.82      25.77
C      10.07      20.46      25.71
C       9.49      19.98      24.51
C       9.39      20.79      23.36
C      10.37      19.59      26.74
C      10.01      25.83      19.11
C      20.35      37.19       2.36
C       0.80      37.57       1.72
C       0.82      38.47       0.62
C      20.34      39.01       0.15
C      19.14      38.62       0.79
C      19.15      37.75       1.88
C      20.25       0.29      38.58
C      20.70      39.36      37.34
C       0.05       0.62      36.22
C      20.43       1.98      36.29
C      19.86       2.46      37.49
C      19.75       1.63      38.64
C      20.74       2.86      35.27
C      20.37      36.17       3.30
C      10.96      22.11      16.78
C       9.71      21.73      17.32
C       9.60      20.70      18.29
C      10.78      20.05      18.76
C      12.03      20.45      18.23
C      12.12      21.47      17.27
C      10.79      18.97      19.69
C      10.13      17.78      19.31
C      10.02      16.70      20.20
C      10.58      16.77      21.49
C      11.33      17.91      21.84
C      11.45      19.01      20.96
C      10.33      15.77      22.43
C      11.01      23.02      15.72
C       0.55       0.30       5.63
C      20.06       0.71       5.08
C      19.96       1.74       4.11
C       0.41       2.37       3.64
C       1.65       1.95       4.18
C       1.72       0.93       5.13
C       0.42       3.45       2.71
C      20.53       4.65       3.10
C      20.43       5.73       2.20
C       0.23       5.65       0.90
C       0.97       4.50       0.56
C       1.08       3.40       1.45
C      20.73       6.64      39.54
C       0.59      38.97       6.69
C       5.74      36.56      20.09
C       4.50      37.10      20.48
C       4.39      38.08      21.51
C       5.58      38.54      22.15
C       6.83      38.00      21.75
C       6.91      37.05      20.73
C       5.59      39.47      23.23
C       4.94      39.09      24.43
C       4.83       0.40      25.51
C       5.39       1.70      25.44
C       6.14       2.04      24.29
C       6.26       1.16      23.19
C       5.15       2.63      26.43
C       5.79      35.50      19.18
C      16.16      25.41       2.34
C      14.91      24.87       1.94
C      14.80      23.90       0.91
C      15.99      23.43       0.27
C      17.23      23.96       0.67
C      17.32      24.91       1.70
C      15.99      22.50      38.76
C      15.34      22.88      37.57
C      15.23      21.99      36.49
C      15.78      20.69      36.56
C      16.53      20.35      37.71
C      16.65      21.23      38.81
C      15.54      19.76      35.57
C      16.21      26.47       3.24
H       6.81      15.82      23.06
H       8.70       6.91      23.22
H       4.71       9.55      23.19
H       4.23      11.84      23.32
H      11.26      10.88      23.42
H      10.79      13.18      23.18
H      17.22       6.58      38.89
H      19.06      15.49      38.80
H      15.09      12.84      38.84
H      14.62      10.54      38.68
H       0.89      11.54      38.56
H       0.43       9.24      38.78
H      12.02      19.12      35.62
H      13.89      19.02      26.71
H       9.90      19.05      29.36
H       9.43      18.89      31.65
H      16.46      18.79      30.68
H      15.99      19.01      32.97
H       1.63       3.26      26.38
H       3.50       3.43      35.29
H      20.27       3.38      32.65
H      19.79       3.52      30.35
H       6.07       3.63      31.32
H       5.60       3.39      29.03
H      16.91      35.62       3.50
H      19.66      26.95       3.85
H      15.44      29.15       3.63
H      14.72      31.40       3.61
H       1.05      31.17       4.13
H       0.35      33.42       3.93
H       6.55      26.35      18.87
H       9.24      35.04      18.58
H       5.04      32.81      18.76
H       4.34      30.55      18.77
H      11.42      30.84      18.29
H      10.73      28.58      18.47
H       1.39      38.67      15.84
H       4.04      38.37       7.14
H      20.59      38.55       9.39
H      19.91      38.56      11.64
H       6.24      38.09      11.33
H       5.56      38.27      13.59
H      11.69      23.25       6.57
H      14.45      23.65      15.23
H      10.23      23.37      13.04
H       9.51      23.34      10.79
H      16.59      23.94      11.01
H      15.88      23.73       8.76
H      14.03       4.72      24.43
H      12.03       5.94      23.99
H      15.57       5.09      27.80
H      17.51       3.83      28.40
H      19.03       4.31      24.50
H      13.55       9.26      26.09
H      15.73       9.15      27.03
H      16.69       7.81      26.90
H      16.37       6.31      23.26
H      17.81       5.58      22.91
H      11.07       8.94      25.58
H      20.04       2.68      26.22
H       3.65      17.69      37.55
H       1.64      16.49      37.99
H       5.20      17.30      34.18
H       7.16      18.56      33.60
H       8.65      18.08      37.50
H       3.15      13.16      35.90
H       5.34      13.25      34.97
H       6.31      14.59      35.10
H       5.97      16.11      38.73
H       7.41      16.83      39.09
H       0.67      13.49      36.40
H       9.68      19.70      35.79
H      19.21      17.76      24.51
H      17.21      18.21      25.72
H       0.00      14.39      24.89
H       1.95      13.79      23.63
H       3.47      17.70      24.11
H      18.73      16.11      29.05
H       0.16      15.17      28.94
H       1.12      15.30      27.61
H       0.79      18.94      26.09
H       2.24      19.29      25.37
H      16.25      16.62      28.73
H       4.47      15.98      22.48
H       8.84       4.65      37.47
H       6.83       4.22      36.27
H      10.40       8.01      37.09
H      12.35       8.59      38.34
H      13.85       4.69      37.85
H       8.35       6.30      32.94
H      10.54       7.23      33.03
H      11.51       7.10      34.37
H      11.16       3.46      35.88
H      12.61       3.10      36.60
H       5.87       5.80      33.26
H      14.88       6.39      39.47
H       3.68      24.67       4.83
H       1.82      26.09       4.43
H       5.13      24.85       8.21
H       6.90      23.38       8.87
H       8.61      23.69       5.03
H       3.68      29.21       6.58
H       5.85      28.85       7.49
H       6.67      27.42       7.33
H       6.23      25.96       3.70
H       7.58      25.07       3.39
H       1.06      28.93       6.18
H       9.45      22.04       6.89
H      14.06      37.31      17.57
H      12.17      35.91      17.97
H      15.54      37.09      14.21
H      17.34      38.53      13.55
H      19.01      38.23      17.41
H      14.04      32.76      15.87
H      16.22      33.09      14.98
H      17.05      34.52      15.13
H      16.58      36.01      18.74
H      17.94      36.89      19.05
H      11.42      33.05      16.25
H      19.89       0.28      15.53
H       8.86      37.35       4.86
H       6.99      37.76       6.26
H      10.33      33.98       5.08
H      12.12      33.31       3.64
H      13.81      37.16       3.92
H       8.84      35.65       9.41
H      11.02      34.75       9.08
H      11.84      34.89       7.65
H      11.39      38.50       6.16
H      12.76      38.81       5.27
H       6.23      36.05       9.14
H      14.66      35.29       2.29
H      19.21      24.67      17.51
H      17.33      24.29      16.10
H      20.72      28.02      17.29
H       1.76      28.66      18.74
H       3.41      24.79      18.43
H      19.22      26.36      12.95
H       0.66      27.24      13.29
H       1.48      27.08      14.72
H       0.98      23.49      16.20
H       2.34      23.16      17.08
H      16.57      26.00      13.25
H       4.30      26.66      20.06
H       2.70       2.19      19.14
H       2.72       0.34      17.66
H       5.53       4.93      18.60
H       5.69       6.83      20.02
H       4.02       4.65      23.21
H       6.92       0.57      17.37
H       8.09       2.18      18.62
H       7.35       3.25      19.63
H       3.61       1.61      21.45
H       3.32       2.43      22.85
H       5.67      38.40      16.13
H       4.56       7.19      23.36
H      13.02      20.24       3.20
H      13.03      22.10       4.67
H      15.81      17.47       3.80
H      16.00      15.56       2.40
H      14.39      17.74      38.75
H      17.22      21.82       5.03
H      18.39      20.20       3.81
H      17.66      19.12       2.79
H      13.96      20.78       0.90
H      13.69      19.96      39.08
H      15.97      23.60       6.23
H      14.93      15.19      38.62
H       7.88      23.03      21.97
H       7.89      24.51      20.11
H      10.69      23.60      24.71
H      10.86      22.20      26.62
H       9.21      18.99      24.46
H      12.08      24.83      20.36
H      13.26      23.59      21.97
H      12.52      22.57      23.04
H       8.80      20.73      21.41
H       8.51      19.33      22.24
H      10.83      26.06      18.60
H       9.74      18.86      27.00
H      18.23      38.97       0.44
H      18.25      37.49       2.30
H       0.28      38.40      37.26
H       0.46       0.24      35.36
H      19.58       3.44      37.55
H       1.69      37.16       2.04
H       2.86      38.40       0.43
H       2.12      39.41      38.93
H      19.16       1.69       1.01
H      18.88       3.10       0.20
H       0.44      35.94       3.81
H      20.11       3.58      35.00
H      12.90      19.98      18.52
H      13.05      21.70      16.91
H       9.69      17.70      18.39
H       9.49      15.87      19.90
H      11.74      17.97      22.78
H       8.86      22.17      16.96
H       7.56      20.82      18.38
H       8.19      19.66      19.37
H      12.23      20.90      20.86
H      12.58      20.10      22.26
H      10.23      23.57      15.47
H      11.03      15.50      23.08
H       2.52       2.41       3.89
H       2.64       0.68       5.50
H      20.09       4.74       4.02
H      19.91       6.56       2.50
H       1.38       4.44      39.20
H      19.20       0.28       5.44
H      17.92       1.65       4.03
H      18.57       2.80       3.04
H       1.85       1.51       1.55
H       2.20       2.29       0.14
H      20.54      38.45       6.95
H       0.68       6.92      38.90
H       7.69      38.29      22.22
H       7.83      36.68      20.49
H       4.49      38.17      24.51
H       4.30       0.10      26.33
H       6.55       2.98      24.24
H       3.65      36.75      20.04
H       2.35      38.17      21.39
H       3.00      39.16      22.54
H       7.04       1.06      21.30
H       7.39       2.46      22.10
H       5.00      35.24      18.65
H       5.85       3.28      26.71
H      18.10      23.67       0.21
H      18.25      25.27       1.93
H      14.90      23.80      37.49
H      14.70      22.29      35.66
H      16.94      19.41      37.77
H      14.06      25.23       2.38
H      12.76      23.83       1.02
H      13.39      22.84      39.44
H      17.43      21.33       1.12
H      17.77      19.92       0.33
H      15.42      26.72       3.79
H      16.23      19.11      35.29
N       9.15      15.27      22.47
N       4.73      14.35      23.59
N      10.72       8.30      23.75
N       6.36       7.43      22.58
N      19.55       7.13      39.49
N      15.13       8.04      38.39
N       0.33      14.12      38.25
N      16.73      14.96      39.43
N      14.36      19.71      35.07
N       9.94      18.60      34.16
N      15.91      18.47      28.09
N      11.55      19.65      27.24
N       3.97       2.68      26.93
N      20.30       3.78      27.84
N       5.52       3.96      33.90
N       1.17       2.80      34.77
N      19.37      35.37       3.36
N      14.98      33.97       3.75
N       0.76      28.52       4.26
N      17.27      27.18       3.30
N       9.00      26.62      19.04
N       4.61      27.99      18.62
N      11.11      33.48      18.16
N       6.86      34.79      19.11
N       3.85      38.84      15.56
N      20.19      38.41      14.21
N       5.91      37.95       8.68
N       1.65      38.89       7.40
N      14.15      23.14       6.81
N       9.76      23.48       8.22
N      16.30      24.07      13.65
N      12.08      23.08      15.00
N      15.84       8.23      26.71
N      17.10       5.74      23.55
N       5.45      14.17      35.28
N       6.71      16.66      38.44
N       0.27      15.49      28.03
N       1.53      18.64      25.53
N      10.65       6.92      33.95
N      11.90       3.75      36.43
N       5.87      27.93       7.15
N       6.88      25.32       4.02
N      16.24      34.01      15.30
N      17.24      36.64      18.42
N      11.04      35.07       8.16
N      12.06      38.19       5.52
N       0.67      26.92      14.21
N       1.64      23.80      16.83
N       7.26       2.53      18.99
N       3.66       2.44      21.94
N      17.57      19.84       3.43
N      14.02      19.95       0.42
N      12.43      23.22      22.33
N       8.85      20.24      22.24
N       2.03      38.77       0.07
N      19.21       2.18       0.18
N       8.35      20.37      18.72
N      12.15      20.10      21.39
N      18.72       2.09       3.69
N       1.77       2.31       1.01
N       3.15      38.51      21.84
N       6.95       1.59      22.10
N      13.55      23.48       0.57
N      17.34      20.79       0.32
