16

H       6.32       3.72       1.25
H      10.23       5.38       0.65
H       9.34       6.78      -1.26
H       5.42       5.11      -0.66
C       8.32       4.48       1.05
C       6.96       4.40       0.69
C       9.19       5.33       0.35
C       8.82       3.67       2.19
C       7.34       6.02      -1.06
C       8.70       6.10      -0.70
C       6.47       5.16      -0.36
C       6.84       6.83      -2.19
O       7.97       2.97       2.86
O      10.05       3.69       2.52
O       7.69       7.53      -2.86
O       5.61       6.82      -2.53
