14

Zn       8.30       9.66      13.42
Zn       9.66       8.30      15.10
O       6.78       9.18      14.66
O       9.98       9.99      12.35
O       7.98       7.97      16.17
O      11.19       8.78      13.86
C       8.50       6.90      12.78
C       6.90       8.50      15.74
O       8.78      11.19      14.66
O       7.97       7.98      12.35
C       9.47      11.07      15.74
O       9.18       6.78      13.86
O       9.99       9.98      16.17
C      11.07       9.47      12.78
