14

O      12.24      14.56      22.97
O      11.86      12.33      22.65
C      11.66      13.45      23.25
O      14.70      12.38      22.97
O      15.09      14.62      22.65
C      15.29      13.45      19.53
Zn      13.47      14.74      21.39
Zn      13.47      12.21      21.39
C      15.29      13.50      23.25
O      14.70      14.56      19.81
C      11.66      13.50      19.53
O      15.09      12.33      20.13
O      12.24      12.38      19.81
O      11.86      14.62      20.13
