14

Zn       9.66       0.68      27.68
O       9.18       2.20      28.92
O       8.78      -2.20      28.12
O       7.97       1.00      30.43
O       9.99      -1.00      26.61
C      11.07      -0.49      30.00
C       9.47      -2.09      27.04
Zn       8.30      -0.68      29.36
O      11.19       0.20      28.92
O       7.98       1.01      26.61
O       6.78      -0.20      28.12
O       9.98      -1.01      30.43
C       6.90       0.49      27.04
C       8.50       2.09      30.00
