14

O       5.72       3.40       5.55
O       6.11       5.63       5.87
C       2.68       4.52       8.99
O       3.26       5.58       5.55
O       2.88       3.35       5.87
Zn       4.49       3.23       7.13
Zn       4.49       5.75       7.13
C       2.68       4.47       5.27
C       6.30       4.47       8.99
O       3.26       3.40       8.71
O       2.88       5.63       8.39
O       5.72       5.58       8.71
O       6.11       3.35       8.39
C       6.30       4.52       5.27
