14

Zn      17.28       8.30      27.68
O      15.76       8.78      28.92
O      17.76       6.78      28.92
O      18.97       7.98      30.43
O      16.96       9.98      26.61
O      18.17      11.19      28.12
C      18.45       6.90      30.00
Zn      18.64       9.66      29.36
O      18.96       7.97      26.61
C      17.48      11.07      27.04
C      20.05       8.50      27.04
O      20.17       9.18      28.12
O      16.97       9.99      30.43
C      15.88       9.47      30.00
