26

H      16.45       7.57       7.03
H      15.44       6.06       8.71
H      19.25       5.85      10.74
H      20.23       7.34       9.04
H      13.90       2.94      11.39
H      14.81       4.58       9.79
H      18.49       4.70      12.09
H      17.58       3.05      13.62
C      17.05       7.16       7.85
C      16.49       6.31       8.79
C      17.28       5.77       9.84
C      18.63       6.19       9.92
C      19.19       7.04       8.98
C      18.41       7.52       7.92
C      14.91       3.33      11.51
C      15.43       4.27      10.63
C      16.73       4.79      10.79
C      17.49       4.33      11.90
C      16.98       3.39      12.78
C      15.69       2.87      12.59
C      19.00       8.42       6.90
C      15.17       1.85      13.53
O      18.23       8.99       6.05
O      20.27       8.60       6.89
O      13.91       1.65      13.62
O      15.99       1.18      14.24
