26

O      20.15       6.58      14.15
O      18.12       6.06      14.90
O      13.83      13.52       7.40
O      15.90      13.83       6.67
C      19.09       8.57      12.44
C      18.55       9.41      11.47
C      17.17       9.36      11.16
C      16.36       8.42      11.84
C      16.90       7.58      12.81
C      18.27       7.65      13.11
C      14.78      11.74       9.44
C      15.29      10.80      10.33
C      16.60      10.29      10.18
C      17.37      10.74       9.08
C      16.86      11.66       8.17
C      15.57      12.18       8.36
C      18.87       6.72      14.11
C      15.07      13.23       7.43
H      20.15       8.62      12.68
H      19.18      10.13      10.96
H      15.31       8.33      11.59
H      16.29       6.84      13.33
H      13.79      12.17       9.57
H      14.69      10.49      11.19
H      18.37      10.35       8.92
H      17.46      11.98       7.33
