26

H      23.57       7.57       3.17
H      24.58       6.06       1.50
H      20.77       5.85      -0.54
H      19.79       7.34       1.15
H      26.13       2.95      -1.19
H      25.22       4.58       0.41
H      21.54       4.70      -1.89
H      22.45       3.05      -3.42
C      22.98       7.16       2.35
C      23.53       6.31       1.41
C      22.75       5.77       0.36
C      21.39       6.19       0.28
C      20.84       7.04       1.22
C      21.62       7.52       2.28
C      25.12       3.33      -1.31
C      24.60       4.27      -0.43
C      23.29       4.79      -0.59
C      22.54       4.33      -1.70
C      23.05       3.39      -2.58
C      24.34       2.88      -2.39
C      21.02       8.42       3.30
C      24.86       1.85      -3.33
O      21.79       9.00       4.14
O      19.76       8.60       3.31
O      26.12       1.65      -3.41
O      24.04       1.18      -4.04
