26

O      27.50      19.12      16.29
O      25.46      18.65      17.04
O      31.79      11.69      23.75
O      29.73      11.32      24.51
H      29.28      17.67      17.25
H      30.28      16.15      18.93
H      26.45      15.95      20.94
H      25.49      17.45      19.24
H      31.79      13.00      21.58
H      30.88      14.64      19.98
H      27.21      14.80      22.29
H      28.12      13.15      23.83
C      28.68      17.26      18.06
C      29.22      16.41      19.00
C      28.43      15.86      20.04
C      27.08      16.29      20.13
C      26.53      17.14      19.18
C      27.32      17.62      18.13
C      30.78      13.40      21.71
C      30.27      14.33      20.82
C      28.97      14.87      20.99
C      28.21      14.42      22.10
C      28.71      13.48      22.99
C      30.00      12.96      22.79
C      26.73      18.51      17.09
C      30.53      11.93      23.73
