26

O      14.13      16.71       3.98
O      16.17      16.13       4.68
O      20.50      23.58      -2.82
O      18.42      23.91      -3.54
C      15.20      18.68       2.24
C      15.75      19.51       1.28
C      17.13      19.46       0.97
C      17.93      18.52       1.65
C      17.38      17.67       2.61
C      16.01      17.75       2.91
C      19.53      21.80      -0.78
C      19.02      20.87       0.12
C      17.70      20.38      -0.02
C      16.93      20.82      -1.13
C      17.45      21.72      -2.05
C      18.74      22.24      -1.86
C      15.41      16.82       3.92
C      19.25      23.29      -2.79
H      14.14      18.73       2.49
H      15.12      20.24       0.78
H      18.99      18.44       1.41
H      17.99      16.94       3.13
H      20.53      22.21      -0.66
H      19.62      20.57       0.97
H      15.93      20.43      -1.28
H      16.85      22.04      -2.90
