26

O      23.92      19.12      14.32
O      25.97      18.64      13.57
O      19.64      11.69       6.86
O      21.69      11.31       6.10
H      22.14      17.67      13.36
H      21.15      16.15      11.68
H      24.97      15.95       9.66
H      25.94      17.44      11.37
H      19.64      13.00       9.03
H      20.54      14.64      10.63
H      24.21      14.80       8.31
H      23.31      13.15       6.77
C      22.75      17.26      12.55
C      22.20      16.40      11.60
C      22.99      15.86      10.56
C      24.34      16.29      10.48
C      24.90      17.13      11.42
C      24.11      17.61      12.48
C      20.64      13.40       8.90
C      21.15      14.33       9.78
C      22.46      14.87       9.61
C      23.22      14.42       8.50
C      22.71      13.48       7.62
C      21.42      12.95       7.81
C      24.70      18.50      13.51
C      20.89      11.93       6.87
