26

O      23.93      11.16      16.27
O      25.97      11.57      17.09
O      19.60      18.51      23.81
O      21.68      18.99      24.44
C      22.75      13.00      18.05
C      22.20      13.86      18.99
C      22.98      14.40      20.04
C      24.33      13.98      20.13
C      24.89      13.13      19.19
C      24.11      12.64      18.13
C      20.60      16.83      21.71
C      21.12      15.90      20.83
C      22.43      15.37      20.99
C      23.19      15.84      22.10
C      22.68      16.78      22.98
C      21.39      17.29      22.79
C      24.70      11.74      17.10
C      20.86      18.32      23.73
H      22.15      12.60      17.23
H      21.14      14.11      18.90
H      24.95      14.32      20.95
H      25.93      12.83      19.25
H      19.59      17.22      21.59
H      20.51      15.58      19.99
H      24.19      15.46      22.29
H      23.28      17.12      23.83
