26

H      31.59       1.44      17.92
H      30.61      -0.08      19.63
H      26.74       1.73      18.99
H      27.73       3.23      17.27
H      25.20      -2.05      21.07
H      26.10      -0.40      19.43
H      29.80      -0.26      21.69
H      28.87      -1.88      23.30
C      30.53       1.49      18.17
C      29.98       0.66      19.13
C      28.60       0.71      19.44
C      27.79       1.65      18.75
C      28.34       2.49      17.79
C      29.72       2.42      17.49
C      26.19      -1.63      21.19
C      26.70      -0.70      20.29
C      28.02      -0.21      20.43
C      28.79      -0.65      21.53
C      28.27      -1.55      22.45
C      26.98      -2.08      22.27
C      30.31       3.35      16.49
C      26.47      -3.12      23.19
O      31.59       3.46      16.43
O      29.56       4.03      15.73
O      25.23      -3.41      23.23
O      27.31      -3.74      23.94
