26

H      25.88      18.73       7.72
H      24.90      20.25       9.43
H      21.03      18.43       8.79
H      22.03      16.94       7.07
H      19.48      22.21      10.86
H      20.39      20.56       9.23
C      24.82      18.68       7.97
C      24.27      19.51       8.93
C      22.89      19.46       9.23
C      22.08      18.52       8.55
C      22.64      17.67       7.59
C      24.01      17.75       7.29
C      20.48      21.80      10.98
C      20.99      20.87      10.08
C      22.31      20.38      10.22
C      23.08      20.82      11.33
C      22.56      21.72      12.25
C      21.27      22.24      12.06
C      24.61      16.82       6.29
C      20.76      23.29      12.99
O      25.88      16.71       6.23
O      23.85      16.13       5.53
O      19.51      23.58      13.01
O      21.59      23.91      13.74
H      24.08      20.43      11.49
H      23.16      22.04      13.10
