26

H      31.27       8.62      17.92
H      32.24      10.13      19.64
H      36.12       8.33      19.02
H      35.14       6.84      17.28
H      37.64      12.17      21.04
H      36.74      10.49      19.42
H      33.05      10.35      21.68
H      33.96      11.98      23.28
C      32.33       8.57      18.17
C      32.88       9.41      19.14
C      34.26       9.36      19.44
C      35.07       8.42      18.76
C      34.52       7.58      17.80
C      33.15       7.65      17.49
C      36.64      11.74      21.16
C      36.14      10.80      20.27
C      34.83      10.29      20.42
C      34.05      10.74      21.52
C      34.57      11.66      22.43
C      35.85      12.18      22.25
C      32.56       6.72      16.49
C      36.36      13.23      23.18
O      31.28       6.59      16.45
O      33.31       6.06      15.70
O      37.60      13.52      23.20
O      35.53      13.83      23.95
