632

H       0.53       9.08      35.38
H       0.60       6.83      36.08
H       0.66       3.36       2.14
H       0.47       2.63       4.38
H       0.16       6.64       5.66
H       0.26      10.33       2.01
H       2.98       7.37       2.67
H       4.86      10.06       5.31
H       2.73      10.76       6.10
H      30.63       7.26       2.65
H      30.70      10.67       6.07
H      28.61       9.83       5.31
H      32.63       5.27       0.61
H       1.51       5.41       0.72
H       0.28       9.84       6.46
H       0.28      11.10       5.21
H       0.42      11.96       0.29
H      32.77       4.89       7.24
H      28.24       7.16       2.82
H       5.35       7.59       2.64
H       0.53      28.98      30.80
H       0.60      31.23      30.10
H       0.66      34.70      26.65
H       0.47      35.43      24.41
H       0.16      31.42      23.13
H       0.26      27.73      26.78
H       2.97      30.69      26.12
H       4.86      28.00      23.48
H       2.73      27.30      22.69
H      30.63      30.80      26.14
H      30.70      27.40      22.72
H      28.61      28.23      23.47
H      32.63      32.79      28.18
H       1.51      32.65      28.07
H       0.28      28.22      22.33
H       0.28      26.97      23.58
H       0.43      26.10      28.50
H      32.77      33.17      21.55
H      28.24      30.90      25.97
H       5.35      30.47      26.16
H       0.53      35.44       4.45
H       0.59      34.74       2.20
H       0.66      31.29      36.12
H       0.47      29.05      35.38
H       0.15      27.77       2.00
H       0.26      31.42       5.70
H       2.97      30.76       2.74
H       4.85      28.11       5.42
H       2.72      27.32       6.12
H      30.62      30.78       2.62
H      30.69      27.36       6.03
H      28.60      28.12       5.19
H      32.62      32.82       0.64
H       1.50      32.71       0.78
H       0.27      26.97       5.19
H       0.27      28.21       6.46
H       0.42      33.14       7.33
H      32.78      26.19       0.25
H      28.23      30.63       2.54
H       5.34      30.80       2.97
H       0.53       2.63      24.34
H       0.59       3.33      26.59
H       0.66       6.78      30.06
H       0.47       9.01      30.79
H       0.15      10.30      26.79
H       0.26       6.65      23.09
H       2.97       7.30      26.05
H       4.85       9.95      23.36
H       2.72      10.74      22.67
H      30.62       7.28      26.16
H      30.69      10.71      22.76
H      28.60       9.95      23.60
H      32.62       5.25      28.15
H       1.50       5.36      28.01
H       0.27      11.10      23.59
H       0.27       9.85      22.33
H       0.42       4.93      21.46
H      32.78      11.88      28.53
H      28.23       7.45      26.26
H       5.34       7.26      25.82
H      17.03      27.77      16.66
H      17.07      25.51      17.36
H      17.05      22.03      20.81
H      16.84      21.31      23.05
H      16.56      25.32      24.32
H      16.73      29.01      20.68
H      19.40      25.96      21.42
H      21.29      28.59      24.11
H      19.16      29.41      24.79
H      14.18      26.00      21.22
H      14.23      29.37      24.69
H      12.15      28.63      23.82
H      16.17      23.96      19.27
H      17.93      24.07      19.40
H      16.69      28.52      25.12
H      16.71      29.77      23.86
H      16.94      30.64      18.98
H      16.26      23.58      25.90
H      11.81      26.27      21.04
H      21.76      25.81      21.77
H      17.03      10.30      12.12
H      17.07      12.55      11.43
H      17.05      16.03       7.98
H      16.84      16.76       5.74
H      16.56      12.75       4.47
H      16.73       9.06       8.10
H      19.40      12.11       7.37
H      21.29       9.47       4.68
H      19.16       8.66       4.00
H      14.18      12.06       7.56
H      14.23       8.69       4.10
H      12.15       9.43       4.97
H      16.17      14.11       9.52
H      17.93      13.99       9.39
H      16.69       9.55       3.67
H      16.71       8.29       4.92
H      16.95       7.42       9.81
H      16.26      14.48       2.88
H      11.81      11.79       7.75
H      21.76      12.25       7.02
H      17.03      16.76      23.13
H      17.07      16.07      20.88
H      17.05      12.62      17.39
H      16.85      10.38      16.67
H      16.56       9.11      20.68
H      16.73      12.74      24.37
H      19.40      12.01      21.32
H      21.30       9.32      23.95
H      19.17       8.63      24.76
H      14.18      12.20      21.37
H      14.24       8.73      24.73
H      12.16       9.60      24.00
H      16.17      14.16      19.32
H      17.94      14.04      19.44
H      16.70       8.30      23.87
H      16.72       9.55      25.13
H      16.95      14.45      26.00
H      16.27       7.52      18.94
H      11.81      12.39      21.65
H      21.76      11.68      21.19
H      17.03      21.30       5.66
H      17.07      22.00       7.91
H      17.05      25.45      11.39
H      16.85      27.68      12.12
H      16.57      28.96       8.11
H      16.74      25.32       4.42
H      19.40      26.05       7.47
H      21.30      28.74       4.84
H      19.17      29.43       4.03
H      14.18      25.86       7.41
H      14.24      29.33       4.06
H      12.16      28.46       4.79
H      16.17      23.90       9.47
H      17.93      24.03       9.35
H      16.70      29.76       4.92
H      16.72      28.51       3.66
H      16.94      23.62       2.78
H      16.27      30.54       9.84
H      11.81      25.67       7.14
H      21.77      26.38       7.60
H       2.31      36.78       7.23
H      30.66       2.97       5.36
H      29.08       2.64       5.74
H       2.31       1.29      21.56
H      30.67      35.10      23.43
H      29.08      35.43      23.06
H       2.30      26.18      32.14
H      30.67      28.07      35.72
H      29.08      27.71      35.39
H       2.30      11.87      34.03
H      30.66      10.00      30.45
H      29.08      10.37      30.78
H      18.77      18.12      25.92
H      14.18      21.62      24.05
H      12.60      21.27      24.43
H      18.77      19.94       2.88
H      14.18      16.45       4.75
H      12.61      16.80       4.37
H      18.76       7.50      13.48
H      14.19       9.39      16.99
H      12.61       9.02      16.63
H      18.76      30.56      15.30
H      14.18      28.69      11.79
H      12.61      29.06      12.15
H      24.95      11.98       4.58
H      27.06       6.58       5.94
H      26.10       5.27       6.28
H      24.95      26.08      24.21
H      27.06      31.48      22.85
H      26.10      32.79      22.49
H      24.93      28.87       7.34
H      27.08      27.49       1.96
H      26.13      27.12       0.65
H      24.93       9.19      21.45
H      27.08      10.57      26.83
H      26.13      10.95      28.14
H       8.52      25.92       4.79
H       6.55      31.39       6.07
H       7.54      32.69       6.36
H       8.52      12.15      24.00
H       6.55       6.68      22.72
H       7.55       5.38      22.41
H       8.54       9.40       7.50
H       6.53      10.70       2.05
H       7.51      11.03       0.75
H       8.53      28.65      21.28
H       6.53      27.36      26.74
H       7.52      27.04      28.04
C      31.92       8.46       3.81
C      31.92       9.46       4.82
C       1.57       9.49       4.85
C       1.63       8.49       3.84
C       2.92       8.08       3.40
C       4.14       8.63       3.91
C       4.03       9.62       4.91
C       2.77      10.04       5.38
C      30.70       9.95       5.33
C      29.47       9.46       4.89
C      29.40       8.47       3.89
C      30.64       7.99       3.37
C       0.37       8.24       1.76
C       0.47       7.23       0.78
C       0.50       5.44       2.55
C       0.37       6.42       3.57
C       0.56       4.07       2.88
C       0.45       3.64       4.21
C       0.27       4.56       5.25
C       0.27       5.95       4.91
C       0.32       9.59       1.31
C       0.37       9.95      37.32
C       0.47       8.90      36.38
C       0.52       7.56      36.79
C       0.35       7.90       3.25
C       0.57       5.79       1.12
C       0.29      10.02       5.38
C       0.04       4.17       6.58
C      28.18       7.91       3.47
C       0.37      11.30      36.94
C       5.38       8.23       3.39
C      31.92      29.60      24.98
C      31.92      28.60      23.97
C       1.57      28.57      23.94
C       1.62      29.57      24.94
C       2.92      29.98      25.39
C       4.13      29.43      24.87
C       4.03      28.45      23.87
C       2.77      28.03      23.41
C      30.70      28.11      23.45
C      29.46      28.60      23.90
C      29.40      29.60      24.90
C      30.64      30.07      25.42
C       0.37      29.82      27.03
C       0.47      30.84      28.01
C       0.50      32.62      26.24
C       0.37      31.65      25.22
C       0.56      34.00      25.91
C       0.45      34.43      24.58
C       0.27      33.50      23.53
C       0.27      32.12      23.88
C       0.32      28.47      27.48
C       0.37      28.12      28.86
C       0.47      29.16      29.80
C       0.52      30.50      29.38
C       0.34      30.16      25.54
C       0.56      32.27      27.67
C       0.29      28.05      23.41
C       0.04      33.90      22.21
C      28.18      30.15      25.32
C       0.37      26.77      29.23
C       5.38      29.82      25.40
C      31.91      29.62       3.82
C      31.91      28.61       4.82
C       1.56      28.57       4.85
C       1.62      29.58       3.86
C       2.91      30.03       3.45
C       4.13      29.51       4.00
C       4.02      28.51       4.98
C       2.76      28.05       5.40
C      30.69      28.09       5.31
C      29.45      28.54       4.82
C      29.40      29.54       3.83
C      30.64      30.07       3.35
C       0.36      31.67       3.61
C       0.46      32.65       2.59
C       0.49      30.88       0.80
C       0.37      29.86       1.78
C       0.56      30.55      36.82
C       0.45      29.23      36.39
C       0.27      28.18      37.32
C       0.26      28.52       1.31
C       0.32      32.12       4.95
C       0.37      33.50       5.31
C       0.46      34.44       4.26
C       0.51      34.02       2.93
C       0.34      30.18       3.27
C       0.56      32.31       1.16
C       0.28      28.05       5.38
C       0.04      26.85      36.92
C      28.18      29.97       3.28
C       0.37      33.87       6.66
C       5.37      30.04       3.61
C      31.91       8.44      24.96
C      31.91       9.46      23.97
C       1.56       9.49      23.93
C       1.62       8.48      24.93
C       2.91       8.04      25.34
C       4.13       8.55      24.79
C       4.02       9.55      23.81
C       2.76      10.02      23.39
C      30.69       9.97      23.48
C      29.45       9.52      23.97
C      29.39       8.52      24.96
C      30.63       8.00      25.44
C       0.36       6.40      25.18
C       0.46       5.41      26.20
C       0.49       7.19      27.99
C       0.36       8.21      27.01
C       0.56       7.51      29.36
C       0.45       8.84      29.79
C       0.27       9.89      28.86
C       0.26       9.55      27.48
C       0.31       5.94      23.83
C       0.36       4.57      23.48
C       0.46       3.63      24.52
C       0.51       4.04      25.86
C       0.34       7.89      25.52
C       0.56       5.75      27.63
C       0.28      10.02      23.41
C       0.04      11.21      29.26
C      28.17       8.10      25.51
C       0.37       4.19      22.13
C       5.37       8.02      25.18
C      15.46      27.14      22.46
C      15.46      28.14      23.47
C      18.00      28.16      23.52
C      18.05      27.15      22.52
C      19.35      26.70      22.13
C      20.56      27.20      22.68
C      20.45      28.21      23.66
C      19.20      28.68      24.07
C      14.23      28.65      23.96
C      13.00      28.21      23.45
C      12.95      27.23      22.44
C      14.19      26.71      21.97
C      16.82      26.91      20.43
C      16.92      25.90      19.44
C      16.90      24.11      21.22
C      16.78      25.09      22.24
C      16.95      22.74      21.55
C      16.83      22.31      22.87
C      16.66      23.24      23.92
C      16.67      24.62      23.58
C      16.79      28.26      19.98
C      16.85      28.63      18.61
C      16.95      27.58      17.66
C      16.98      26.24      18.07
C      16.77      26.58      21.91
C      16.99      24.46      19.78
C      16.71      28.69      24.04
C      16.42      22.85      25.25
C      11.73      26.84      21.85
C      16.87      29.98      18.24
C      21.80      26.63      22.33
C      15.46      10.92       6.33
C      15.46       9.93       5.32
C      18.00       9.90       5.27
C      18.05      10.91       6.26
C      19.35      11.37       6.66
C      20.56      10.87       6.11
C      20.45       9.85       5.13
C      19.20       9.38       4.72
C      14.23       9.42       4.83
C      13.00       9.86       5.33
C      12.95      10.83       6.35
C      14.19      11.35       6.82
C      16.82      11.15       8.36
C      16.92      12.16       9.34
C      16.90      13.95       7.57
C      16.78      12.98       6.55
C      16.95      15.33       7.24
C      16.83      15.75       5.91
C      16.66      14.82       4.87
C      16.67      13.44       5.21
C      16.79       9.80       8.81
C      16.85       9.44      10.18
C      16.95      10.48      11.12
C      16.98      11.82      10.71
C      16.77      11.49       6.87
C      16.99      13.60       9.00
C      16.71       9.37       4.75
C      16.43      15.21       3.54
C      11.73      11.22       6.94
C      16.87       8.08      10.55
C      21.80      11.43       6.46
C      15.47      10.97      22.51
C      15.47       9.95      23.50
C      18.01       9.90      23.52
C      18.06      10.90      22.51
C      19.35      11.31      22.06
C      20.57      10.75      22.56
C      20.46       9.77      23.57
C      19.20       9.36      24.04
C      14.24       9.46      24.01
C      13.01       9.97      23.57
C      12.95      10.98      22.60
C      14.20      11.46      22.08
C      16.82      13.00      22.28
C      16.92      13.99      21.27
C      16.91      12.21      19.47
C      16.78      11.19      20.45
C      16.95      11.88      18.10
C      16.84      10.56      17.67
C      16.67       9.51      18.60
C      16.67       9.85      19.98
C      16.79      13.45      23.63
C      16.85      14.82      23.99
C      16.95      15.76      22.95
C      16.98      15.35      21.61
C      16.78      11.51      21.94
C      16.99      13.65      19.83
C      16.72       9.38      24.05
C      16.43       8.18      18.22
C      11.74      11.58      22.21
C      16.87      15.19      25.34
C      21.80      11.11      21.99
C      15.47      27.10       6.28
C      15.47      28.11       5.29
C      18.01      28.16       5.27
C      18.06      27.16       6.28
C      19.35      26.76       6.73
C      20.57      27.32       6.23
C      20.46      28.30       5.22
C      19.20      28.71       4.75
C      14.24      28.61       4.78
C      13.01      28.10       5.22
C      12.95      27.08       6.19
C      14.20      26.61       6.71
C      16.82      25.07       6.51
C      16.92      24.08       7.52
C      16.91      25.85       9.31
C      16.78      26.87       8.34
C      16.95      26.18      10.69
C      16.84      27.51      11.11
C      16.67      28.56      10.18
C      16.67      28.21       8.80
C      16.79      24.62       5.16
C      16.85      23.24       4.80
C      16.95      22.30       5.84
C      16.98      22.71       7.18
C      16.78      26.55       6.85
C      16.99      24.42       8.96
C      16.72      28.68       4.74
C      16.43      29.88      10.57
C      11.74      26.48       6.57
C      16.87      22.88       3.45
C      21.80      26.96       6.79
C      32.87       1.71       6.77
C       1.38      37.16       7.02
C       0.26      36.32       6.89
C      31.74       0.87       6.63
C      30.40       1.32       6.51
C      32.88      36.36      22.02
C       1.38       0.91      21.78
C       0.26       1.75      21.90
C      31.73      37.20      22.15
C      30.40      36.74      22.27
C      32.87      26.66      34.46
C       1.38      26.41      32.52
C       0.26      26.55      31.68
C      31.73      26.80      33.62
C      30.39      26.93      34.07
C      32.87      11.40      31.72
C       1.38      11.65      33.66
C       0.26      11.51      34.50
C      31.73      11.26      32.56
C      30.39      11.14      32.11
C      16.41      20.40      25.46
C      17.84      18.48      25.70
C      16.73      17.62      25.57
C      15.29      19.54      25.32
C      13.94      19.97      25.20
C      16.42      17.67       3.33
C      17.84      19.58       3.09
C      16.73      20.44       3.22
C      15.29      18.52       3.46
C      13.94      18.09       3.58
C      16.42       7.98      15.76
C      17.84       7.72      13.84
C      16.73       7.86      12.98
C      15.29       8.11      14.90
C      13.94       8.24      15.33
C      16.41      30.09      13.03
C      17.84      30.34      14.94
C      16.73      30.20      15.80
C      15.29      29.95      13.88
C      13.94      29.83      13.46
C      26.10       8.88       4.54
C      24.96      10.98       4.77
C      23.91      10.37       5.51
C      25.07       8.26       5.31
C      25.06       6.89       5.68
C      26.10      29.18      24.25
C      24.96      27.09      24.01
C      23.91      27.69      23.28
C      25.07      29.80      23.48
C      25.06      31.17      23.11
C      26.09      28.89       4.24
C      24.94      28.67       6.34
C      23.91      27.92       5.73
C      25.08      28.11       3.63
C      25.08      27.72       2.26
C      26.09       9.17      24.55
C      24.95       9.40      22.45
C      23.91      10.15      23.05
C      25.08       9.96      25.16
C      25.07      10.34      26.53
C       7.44      29.04       4.70
C       8.53      26.93       4.97
C       9.60      27.52       5.67
C       8.49      29.65       5.44
C       8.54      31.03       5.78
C       7.44       9.02      24.09
C       8.53      11.14      23.82
C       9.60      10.54      23.12
C       8.49       8.41      23.35
C       8.53       7.03      23.01
C       7.44       9.33       4.39
C       8.55       9.59       6.50
C       9.61      10.30       5.90
C       8.48      10.09       3.78
C       8.52      10.44       2.40
C       7.44      28.73      24.40
C       8.54      28.47      22.29
C       9.61      27.76      22.88
C       8.48      27.98      25.01
C       8.52      27.63      26.39
N       1.20       1.11       6.99
N      31.93      36.91       6.73
N      30.02       2.44       5.85
N      32.80       2.99       7.09
N       0.34      35.04       7.21
N       1.20      36.95      21.80
N      31.93       1.15      22.05
N      30.03      35.62      22.93
N      32.80      35.07      21.70
N       0.33       3.03      21.58
N       1.19      26.44      33.86
N      31.93      26.70      32.27
N      30.02      27.58      35.19
N      32.80      26.34      35.74
N       0.34      26.22      30.40
N       1.19      11.63      32.31
N      31.93      11.36      33.91
N      30.02      10.49      30.99
N      32.80      11.73      30.43
N       0.33      11.85      35.78
N      17.63      19.83      25.67
N      15.51      18.20      25.42
N      13.55      21.08      24.54
N      16.32      21.68      25.77
N      16.83      16.35      25.90
N      17.63      18.24       3.12
N      15.51      19.87       3.36
N      13.55      16.98       4.23
N      16.32      16.38       3.02
N      16.83      21.72       2.89
N      17.63       7.75      15.19
N      15.51       8.01      13.56
N      13.56       8.89      16.45
N      16.33       7.66      17.04
N      16.83       7.53      11.71
N      17.63      30.31      13.60
N      15.51      30.05      15.23
N      13.55      29.18      12.34
N      16.32      30.41      11.74
N      16.82      30.53      17.08
N      25.97      10.21       4.29
N      24.04       9.04       5.76
N      26.18       6.17       5.94
N      26.97       8.16       3.83
N      23.00      11.13       6.12
N      25.97      27.85      24.50
N      24.04      29.02      23.03
N      26.18      31.89      22.85
N      26.97      29.90      24.96
N      23.00      26.94      22.67
N      25.96      29.16       5.57
N      24.05      27.65       4.41
N      26.20      27.47       1.55
N      26.96      29.61       3.53
N      23.01      27.30       6.49
N      25.96       8.91      23.22
N      24.05      10.41      24.38
N      26.20      10.60      27.24
N      26.96       8.45      25.26
N      23.01      10.77      22.30
N       7.53      27.70       4.48
N       9.51      28.86       5.89
N       7.44      31.78       6.05
N       6.57      29.76       3.99
N      10.52      26.76       6.27
N       7.53      10.36      24.31
N       9.51       9.20      22.90
N       7.44       6.28      22.75
N       6.57       8.30      24.80
N      10.52      11.30      22.52
N       7.54       9.10       5.72
N       9.50      10.54       4.57
N       7.42      10.70       1.66
N       6.58       8.62       3.66
N      10.51      10.91       6.66
N       7.54      28.96      23.06
N       9.50      27.52      24.22
N       7.42      27.36      27.13
N       6.58      29.44      25.13
N      10.51      27.15      22.12
O      29.40       0.51       6.95
O      29.40       0.16      21.83
O      29.40      26.49      33.26
O      29.40      11.58      32.92
O      12.96      19.14      25.65
O      12.96      18.92       3.14
O      12.96       7.80      14.51
O      12.96      30.27      14.28
O      23.87       6.31       5.95
O      23.87      31.75      22.83
O      23.90      27.43       1.68
O      23.89      10.64      27.11
O       9.74      31.59       6.02
O       9.74       6.47      22.77
O       9.72      10.70       1.84
O       9.73      27.37      26.95
