17

Ni      -2.84       5.84      20.76
Ni      -3.51       2.83      20.69
C      -1.38       1.73      19.14
C      -4.77       4.65      22.29
O      -4.56       1.47      20.72
C      -4.29       4.70      18.80
C      -3.84      -0.31      22.17
C      -3.67       0.98      21.51
H      -1.75       4.04      21.66
H      -1.59       4.09      20.05
O      -3.42       5.66      19.06
O      -2.72       2.14      19.18
O      -4.50       5.65      21.48
O      -4.29       3.49      22.12
O      -4.56       3.75      19.61
O      -2.27       4.15      20.79
O      -2.66       1.75      21.73
