17

Ni      -0.12      11.27      30.19
Ni       1.47       8.77      29.33
C       0.41       6.56      30.69
C       0.59      10.81      27.66
O       1.64      11.72      30.12
C       2.55      10.91      30.62
H      -0.79       9.10      29.91
H       0.17       9.29      31.22
O       1.53       7.39      30.54
O      -0.37      11.32      28.41
O       1.51      10.08      28.14
O       2.59       9.66      30.36
O       0.08       9.50      30.23
O       0.51       7.85      28.25
O       2.68       7.98      28.37
C       1.72       6.73      26.49
C       1.65       7.50      27.74
