26

Zn       2.09      10.50       3.73
Zn       4.06      13.03       2.74
Zn       1.53      13.56       4.30
Zn      -0.50      10.97       5.19
C      -0.34      10.22       2.19
C       3.13      15.71       2.84
H       1.65      12.56       1.97
H       1.83      11.48       6.02
O      -0.49       8.97       5.01
O       1.77       8.67       4.82
O       2.16      12.42       2.81
O       5.09      11.44       2.33
O       0.90       9.81       2.31
O       3.95       9.93       3.60
O      -0.83      11.12       3.03
O       4.13      14.94       3.17
O       1.91      15.37       3.18
O       1.36      11.63       5.16
O      -1.57      12.66       5.46
O       2.89      14.10       5.66
O      -0.28      14.31       4.53
O       4.34      12.57       4.83
C      -1.16      13.92       5.43
C       4.06      13.49       5.71
C       0.57       8.19       5.09
C       4.69      10.22       2.55
