240

Cs       9.11      18.87      11.91
Cs       3.14       1.65      21.17
Cs       2.84       8.61      10.14
Cs       8.82      11.91       0.88
Cs       2.84       1.65      10.14
Cs       8.82      18.87       0.88
Cs       9.11      11.91      11.91
Cs       3.14       8.61      21.17
Cs      11.93      15.39      14.45
Cs       5.95       5.13      18.63
Cs       0.03       5.13       7.61
Cs       6.01      15.39       3.42
U       1.68      18.82      12.63
U       7.65       1.71      20.46
U      10.28       8.55       9.43
U       4.30      11.97       1.60
U      10.28       1.71       9.43
U       4.30      18.82       1.60
U       1.68      11.97      12.63
U       7.65       8.55      20.46
U      10.88      15.39       9.71
U       4.91       5.13       1.32
U       1.07       5.13      12.35
U       7.05      15.39      20.73
P       0.00      18.93       9.42
P       5.98       1.59       1.61
P      11.95       8.67      12.64
P       5.97      11.86      20.45
P      11.95       1.59      12.64
P       5.97      18.93      20.45
P       0.00      11.86       9.42
P       5.98       8.67       1.61
P       2.15      15.39      11.14
P       8.13       5.13      21.95
P       9.80       5.13      10.92
P       3.82      15.39       0.11
H       4.09      17.42      10.39
H       6.34      17.44       9.83
H       0.33       0.13       7.16
H       1.62       0.10       5.21
H       2.80      16.83       6.13
H       1.60      16.94       8.11
H      10.06       3.11       0.64
H       0.36       3.09       1.20
H       6.30      20.40       3.87
H       7.60      20.42       5.82
H       8.78       3.69       4.90
H       7.58       3.58       2.92
H       7.87       7.15      11.67
H       5.62       7.17      12.23
H      11.63      10.39      14.89
H      10.34      10.36      16.84
H       9.15       6.57      15.93
H      10.36       6.68      13.94
H       1.89      13.37      21.41
H      11.60      13.35      20.86
H       5.65      10.13      18.19
H       4.36      10.16      16.24
H       3.17      13.95      17.16
H       4.38      13.84      19.14
H       7.87       3.11      11.67
H       5.62       3.09      12.23
H      11.63      20.40      14.89
H      10.34      20.42      16.84
H       9.15       3.69      15.93
H      10.36       3.58      13.94
H       1.89      17.42      21.41
H      11.60      17.44      20.86
H       5.65       0.13      18.19
H       4.36       0.10      16.24
H       3.17      16.83      17.16
H       4.38      16.94      19.14
H       4.09      13.37      10.39
H       6.34      13.35       9.83
H       0.33      10.13       7.16
H       1.62      10.16       5.21
H       2.80      13.95       6.13
H       1.60      13.84       8.11
H      10.06       7.15       0.64
H       0.36       7.17       1.20
H       6.30      10.39       3.87
H       7.60      10.36       5.82
H       8.78       6.57       4.90
H       7.58       6.68       2.92
C       4.55      16.59      10.29
C       5.88      16.61       9.96
C       0.85      18.81       7.84
C       0.85      19.89       6.96
C       1.60      19.87       5.79
C       2.35      18.71       5.49
C       2.32      17.62       6.35
C       1.59      17.68       7.52
C       3.19      18.70       4.23
C      10.53       3.93       0.73
C      11.86       3.91       1.07
C       6.83       1.71       3.19
C       6.83       0.64       4.07
C       7.58       0.65       5.24
C       8.33       1.81       5.54
C       8.30       2.90       4.68
C       7.57       2.84       3.51
C       9.16       1.82       6.80
C       7.41       6.33      11.76
C       6.08       6.35      12.10
C      11.10       8.55      14.22
C      11.10       9.63      15.09
C      10.35       9.61      16.26
C       9.61       8.45      16.57
C       9.64       7.36      15.71
C      10.36       7.42      14.54
C       8.77       8.44      17.83
C       1.43      14.19      21.32
C       0.10      14.17      20.99
C       5.12      11.97      18.87
C       5.13      10.90      17.99
C       4.37      10.91      16.82
C       3.63      12.07      16.51
C       3.66      13.16      17.38
C       4.38      13.10      18.54
C       2.79      12.09      15.25
C       7.41       3.93      11.76
C       6.08       3.91      12.10
C      11.10       1.71      14.22
C      11.10       0.64      15.09
C      10.35       0.65      16.26
C       9.61       1.81      16.57
C       9.64       2.90      15.71
C      10.36       2.84      14.54
C       8.77       1.82      17.83
C       1.43      16.59      21.32
C       0.10      16.61      20.99
C       5.12      18.81      18.87
C       5.13      19.89      17.99
C       4.37      19.87      16.82
C       3.63      18.71      16.51
C       3.66      17.62      17.38
C       4.38      17.68      18.54
C       2.79      18.70      15.25
C       4.55      14.19      10.29
C       5.88      14.17       9.96
C       0.85      11.97       7.84
C       0.85      10.90       6.96
C       1.60      10.91       5.79
C       2.35      12.07       5.49
C       2.32      13.16       6.35
C       1.59      13.10       7.52
C       3.19      12.09       4.23
C      10.53       6.33       0.73
C      11.86       6.35       1.07
C       6.83       8.55       3.19
C       6.83       9.63       4.07
C       7.58       9.61       5.24
C       8.33       8.45       5.54
C       8.30       7.36       4.68
C       7.57       7.42       3.51
C       9.16       8.44       6.80
C       3.83      15.39      10.50
C       6.54      15.39       9.82
C       8.01      15.39       9.60
C       9.81       5.13       0.53
C       0.57       5.13       1.21
C       2.03       5.13       1.43
C       8.12       5.13      11.55
C       5.41       5.13      12.24
C       3.95       5.13      12.45
C       2.14      15.39      21.53
C      11.39      15.39      20.84
C       9.93      15.39      20.63
O       0.02      18.37      13.14
O       1.98      16.65      11.97
O       8.66      16.50       9.57
O       1.09      19.22      10.44
O      10.91      20.03       9.36
O      11.27      17.63       9.73
O       3.41      17.61       3.60
O       3.62      19.79       3.75
O       5.99       2.15      19.94
O       7.95       3.88      21.12
O       2.68       4.02       1.46
O       7.07       1.30       0.59
O       4.93       0.49       1.67
O       5.29       2.90       1.30
O       9.38       2.91       7.43
O       9.60       0.73       7.28
O      11.94       8.11       8.92
O       9.98       6.38      10.09
O       3.30       6.24      12.49
O      10.86       8.96      11.61
O       1.05       9.77      12.70
O       0.69       7.37      12.33
O       8.55       7.35      18.46
O       8.34       9.53      18.31
O       5.96      12.41       2.11
O       4.00      14.14       0.94
O       9.28      14.28      20.59
O       4.88      11.56      21.47
O       7.02      10.75      20.38
O       6.67      13.16      20.75
O       2.57      13.17      14.63
O       2.36      10.99      14.78
O      11.94       2.15       8.92
O       9.98       3.88      10.09
O       3.30       4.02      12.49
O      10.86       1.30      11.61
O       1.05       0.49      12.70
O       0.69       2.90      12.33
O       8.55       2.91      18.46
O       8.34       0.73      18.31
O       5.96      18.37       2.11
O       4.00      16.65       0.94
O       9.28      16.50      20.59
O       4.88      19.22      21.47
O       7.02      20.03      20.38
O       6.67      17.63      20.75
O       2.57      17.61      14.63
O       2.36      19.79      14.78
O       0.02      12.41      13.14
O       1.98      14.14      11.97
O       8.66      14.28       9.57
O       1.09      11.56      10.44
O      10.91      10.75       9.36
O      11.27      13.16       9.73
O       3.41      13.17       3.60
O       3.62      10.99       3.75
O       5.99       8.11      19.94
O       7.95       6.38      21.12
O       2.68       6.24       1.46
O       7.07       8.96       0.59
O       4.93       9.77       1.67
O       5.29       7.37       1.30
O       9.38       7.35       7.43
O       9.60       9.53       7.28
O      10.67      15.39      11.49
O       1.22      15.39       9.93
O       4.69       5.13      21.60
O       7.20       5.13       1.10
O       1.29       5.13      10.57
O      10.74       5.13      12.13
O       7.26      15.39       0.46
O       4.76      15.39      20.96
