19

P       6.27       9.01      11.86
H       4.03       9.21      16.62
H       3.35      11.66      16.60
H       4.56      13.21      15.02
H       6.31      12.26      13.51
H       7.62       8.79      13.83
H       7.86      10.38      13.02
H       7.73       8.71      10.31
C       4.49       9.96      15.98
C       4.15      11.30      15.94
C       4.81      12.16      15.06
C       5.80      11.63      14.23
C       6.13      10.28      14.27
C       7.11       9.64      13.36
N       5.46       9.46      15.16
O       5.80      10.20      11.04
O       7.39       8.18      11.10
O       5.15       8.06      12.30
O       5.77       8.18      15.24
