24

P       5.18      10.41       3.41
P       9.26       8.06      -3.24
H       9.02       9.25       1.05
H       8.20       7.86       1.81
H       5.77      11.09       0.82
H       7.50      11.22       0.40
H       6.24      10.71      -1.67
H       5.43       9.32      -0.91
H       6.97       7.35      -0.28
H       8.71       7.49      -0.70
C       6.52       9.48       2.70
C       8.08       8.65       1.05
C       6.64      10.54       0.45
C       7.89       9.04      -2.58
C       6.35       9.92      -0.92
C       7.83       8.03      -0.32
N       6.97       9.50       1.45
N       7.46       9.05      -1.34
O       4.24      11.30       2.66
O       5.98      10.98       4.63
O       4.32       9.15       3.98
O       5.14       7.38      -2.26
O       8.52       7.29      -4.36
O       4.94       9.26      -4.07
