29

C      18.30       9.87      11.92
H      21.01      12.53      11.37
C      16.95       4.31      10.24
H      18.32       5.86       9.64
C      17.12       6.46      11.33
N      20.24      11.10      12.65
C      20.22      11.79      11.49
O      13.86       3.30      12.80
C      18.29      10.59      10.71
C      17.42       3.35       9.19
H      19.30      12.14       9.58
H      17.36       8.43      13.22
C      17.54       5.57      10.34
O      14.30       5.08      14.16
H      16.30       9.01      11.89
O      18.50       3.65       8.58
H      17.54      10.38       9.95
C      14.48       4.38      13.11
C      15.93       3.94      11.13
H      15.46       2.97      11.06
O      16.71       2.31       9.00
H      15.80       6.76      13.04
O      17.79       7.67      11.30
C      16.12       6.10      12.24
C      17.34       8.73      12.16
C      19.30      10.16      12.85
C      15.53       4.83      12.13
H      19.37       9.61      13.79
C      19.27      11.56      10.50
