13

Zn       5.69       5.16      23.26
O       5.12       7.15      23.16
N       3.81       4.28      23.66
O       6.21       5.40      25.25
C       7.41       5.57      25.66
O       5.61       5.19      21.19
C       3.88       3.47      24.91
C       2.72       5.30      23.82
O       6.77       3.39      23.28
C       3.43       3.36      22.53
C       6.43       5.92      20.54
C       8.00       3.31      22.93
C       5.90       8.14      23.31
