13

O      13.08       9.05       7.58
Zn      14.15       7.26       7.56
C      12.44       6.85       9.96
N      16.02       8.14       7.96
C      15.95       8.95       9.21
C      17.11       7.12       8.12
C      16.40       9.05       6.83
C      13.39       6.49       4.84
O      14.74       5.27       7.46
O      13.64       7.02       9.56
C      13.95       4.27       7.61
O      14.20       7.23       5.49
C      11.85       9.12       7.23
