13

C       7.78      19.25       5.74
O      10.07      17.68       8.24
C       7.19      21.51       8.48
O       8.97      19.43       6.15
Zn       9.50      19.66       8.14
O       9.58      19.63      10.21
C      11.31      21.36       6.49
C      12.47      19.53       7.58
C       8.76      18.90      10.86
C      11.76      21.46       8.87
N      11.38      20.55       7.74
O       8.42      21.43       8.12
C       9.29      16.68       8.10
