13

O       2.11      15.78      23.82
C      -0.76      15.88      22.20
C      -1.92      17.71      23.28
C      -1.21      15.77      24.58
C       3.34      15.71      24.18
C       1.80      18.33      26.57
Zn       1.04      17.57      23.84
C       1.24      20.55      23.80
O       0.45      19.56      23.94
O       1.55      17.80      21.85
N      -0.83      16.68      23.44
O       0.99      17.60      25.91
C       2.75      17.98      21.44
