736

C      15.25      27.05      27.52
C      14.18      27.95      27.72
C      13.42       0.27      26.63
C      13.61      27.89      25.33
C      14.48      26.78      25.18
C      15.34      26.43      26.25
C      16.31      27.00       0.34
C      16.09      27.01       1.74
C      17.11      27.43       2.65
C      18.16       0.02       2.06
C      18.62      27.76       0.78
C      17.61      27.20      28.07
C       5.76      14.10       1.29
C       4.68      13.18       1.19
C       3.63      13.13       2.14
C       3.75      13.92       3.32
C       4.70      14.97       3.35
C       5.72      15.02       2.36
C       6.77      14.09       0.28
C       6.39      13.88      27.07
C       7.39      13.71      26.08
C       8.64      13.31      26.57
C       9.11      13.99      27.73
C       8.15      14.32       0.54
C       9.87      20.12      22.25
C       8.68      20.47      21.56
C       7.67      19.51      21.30
C       7.71      18.22      21.90
C       8.84      17.91      22.71
C       9.92      18.83      22.83
C      10.98      21.00      22.14
C      10.85      22.41      22.08
C      11.93      23.23      21.66
C      12.93      22.56      20.93
C      13.34      21.31      21.47
C      12.30      20.50      22.02
C      21.01      21.96       6.14
C      20.11      21.31       7.01
C      18.99      21.96       7.58
C      18.86      23.37       7.38
C      19.57      23.95       6.30
C      20.69      23.28       5.75
C       0.97      21.31       5.85
C       1.10      19.90       5.72
C       2.28      19.23       6.14
C       3.16      20.00       6.93
C       3.30      21.38       6.58
C       2.17      22.03       6.02
C       6.04       1.96       0.05
C       7.17       1.89      27.40
C       8.45       1.92      27.96
C       8.67       2.02       1.21
C       7.52       2.24       2.01
C       6.22       2.15       1.44
C       4.76       1.68      27.59
C       4.46       2.13      26.28
C       3.41       1.56      25.52
C       2.83       0.39      26.06
C       2.72       0.30      27.49
C       3.81       0.89       0.06
C      17.77      12.47      27.25
C      18.90      12.24      28.07
C      20.21      12.10      27.55
C      20.40      12.24      26.14
C      19.26      12.26      25.29
C      17.97      12.46      25.85
C      16.53      12.78      27.89
C      16.17      12.10       0.92
C      15.17      12.64       1.76
C      14.83      13.99       1.52
C      14.68      14.34       0.14
C      15.63      13.78      27.43
C      11.01       7.95       6.44
C      12.03       8.09       7.42
C      12.89       9.21       7.44
C      12.64      10.26       6.53
C      11.87       9.98       5.37
C      11.01       8.86       5.36
C      10.11       6.86       6.52
C      10.56       5.51       6.57
C       9.60       4.47       6.66
C       8.44       4.81       7.39
C       7.84       6.06       7.04
C       8.72       7.08       6.59
C       0.29       6.26      20.22
C       1.43       6.21      19.37
C       2.27       5.07      19.31
C       1.89       3.91      20.04
C       0.96       4.05      21.09
C       0.13       5.19      21.13
C      20.69       7.39      20.24
C      21.16       8.72      20.23
C      20.25       9.81      20.37
C      18.91       9.56      19.98
C      18.37       8.28      20.33
C      19.30       7.20      20.41
C       3.59      14.36      14.73
C       2.20      14.53      14.94
C       1.32      14.53      13.85
C       1.77      14.28      12.53
C       3.11      13.84      12.36
C       4.02      13.97      13.43
C       4.49      14.57      15.80
C       4.39      13.89      17.04
C       5.38      14.02      18.04
C       6.33      15.07      17.91
C       6.56      15.62      16.62
C       5.61      15.39      15.60
C      16.10       0.30      14.90
C      15.04      27.52      14.96
C      14.21      27.40      16.11
C      14.52       0.02      17.25
C      15.35       1.16      17.09
C      16.18       1.25      15.95
C      17.00       0.33      13.80
C      16.57       0.23      12.45
C      17.52       0.27      11.39
C      18.83      27.98      11.71
C      19.34       0.21      12.99
C      18.39       0.49      14.01
C      20.26       7.11       8.71
C      19.09       7.90       8.74
C      17.79       7.33       8.79
C      17.66       5.92       8.64
C      18.80       5.11       8.85
C      20.08       5.70       8.86
C       0.30       7.69       8.63
C       0.61       8.98       9.14
C       1.93       9.51       9.15
C       3.00       8.74       8.61
C       2.67       7.52       7.94
C       1.37       7.00       8.01
C       9.56       7.54      19.67
C       8.50       6.69      19.28
C       7.17       7.15      19.11
C       6.84       8.46      19.54
C       7.90       9.39      19.74
C       9.24       8.92      19.81
C      10.85       7.00      19.95
C      11.30       5.78      19.38
C      12.43       5.08      19.88
C      12.95       5.58      21.10
C      12.97       7.00      21.24
C      11.81       7.66      20.77
C      14.99      15.28      14.65
C      16.10      14.67      14.01
C      17.22      14.22      14.73
C      17.27      14.34      16.15
C      16.28      15.13      16.79
C      15.17      15.58      16.03
C      13.80      15.58      13.93
C      13.72      15.72      12.51
C      12.48      15.79      11.82
C      11.27      15.74      12.56
C      11.34      15.91      13.97
C      12.58      15.73      14.62
C       6.78      26.76      14.05
C       7.95      26.55      14.83
C       9.22      26.32      14.25
C       9.35      26.42      12.83
C       8.17      26.35      12.04
C       6.91      26.57      12.65
C       5.56      27.15      14.67
C       5.18      26.67      15.95
C       4.03      27.16      16.61
C       3.33       0.09      16.06
C       3.43       0.29      14.65
C       4.60      27.96      14.01
C       0.60      20.74      19.59
C       1.79      20.03      19.30
C       2.91      20.66      18.74
C       2.83      22.01      18.31
C       1.69      22.77      18.68
C       0.60      22.14      19.34
C      20.80      20.03      20.22
C      20.50      18.70      19.85
C      19.43      17.98      20.42
C      18.85      18.52      21.58
C      18.79      19.94      21.67
C      19.87      20.65      21.09
C      11.67      20.80       6.66
C      13.03      20.99       6.96
C      13.94      19.92       7.13
C      13.49      18.60       6.84
C      12.09      18.37       6.93
C      11.22      19.45       6.67
C      10.80      21.92       6.50
C      10.96      23.12       7.26
C      10.00      24.17       7.22
C       9.02      24.12       6.20
C       8.64      22.84       5.74
C       9.60      21.81       5.76
C       1.47      28.09      28.06
C      20.51      27.39      27.38
C      19.99      27.84       0.43
C       0.97       0.28       1.18
C       1.64       0.95       2.33
C      13.31      14.68      27.91
C      11.13      14.97       0.75
C      10.48      14.34      27.82
C      12.66      14.33      26.69
C      13.27      13.98      25.38
C      17.50      20.55      21.84
C      15.21      19.92      22.36
C      14.71      21.00      21.61
C      17.00      21.73      21.20
C      17.73      22.77      20.42
C       7.30      22.48       6.02
C       4.98      23.03       5.70
C       4.59      21.94       6.51
C       6.92      21.47       6.95
C       7.71      20.68       7.93
C       0.06      12.00       0.29
C       1.16      13.22       2.03
C       2.39      12.57       1.74
C       1.23      11.21       0.12
C       1.26       9.97      27.46
C       9.53       1.59      27.14
C      11.10      27.96      27.10
C      12.14       0.74      26.93
C      10.57       2.52      26.88
C      10.33       3.98      26.79
C       4.13      20.30      19.32
C       5.77      20.96      20.92
C       6.59      19.90      20.51
C       4.99      19.30      18.82
C       4.71      18.52      17.59
C      15.23      20.23       7.60
C      17.57      19.99       7.15
C      17.85      21.18       7.88
C      15.53      21.26       8.54
C      14.60      21.88       9.52
C       3.69       6.77       7.33
C       5.78       7.21       6.23
C       6.44       6.26       7.04
C       4.30       5.71       8.05
C       3.68       4.95       9.17
C      14.26       7.61      21.27
C      16.59       6.98      21.48
C      17.01       8.07      20.69
C      14.69       8.81      20.62
C      13.85       9.88      20.02
C      16.66       8.16       8.89
C      15.35       9.61       7.53
C      14.15       9.10       8.09
C      15.49       7.82       9.63
C      15.44       6.94      10.83
C       6.19       6.28      18.61
C       4.71       4.65      19.54
C       3.61       5.23      18.85
C       5.15       6.70      17.73
C       5.28       7.77      16.71
C      10.20      16.16      14.76
C       9.00      15.41      16.68
C       7.84      16.07      16.22
C       9.11      17.01      14.41
C       9.14      18.09      13.39
C       2.23       0.49      13.91
C      21.22       1.29      14.21
C      20.73       0.38      13.25
C       1.76      27.83      12.84
C       2.50      26.78      12.09
C      10.37      26.14      15.06
C      11.76      27.40      16.52
C      12.93      26.80      15.98
C      11.50      25.35      14.70
C      11.49      24.14      13.83
C      18.45      14.33      14.07
C      20.55      13.20      13.98
C      21.22      14.44      14.12
C      19.13      15.58      14.06
C      18.47      16.91      14.01
C      14.06      25.78      24.28
C      12.20      24.30      23.91
C      12.46      24.25      22.53
C      14.34      25.76      22.89
C      15.44      26.48      22.18
C       4.31      16.15       4.03
C       2.47      17.70       4.17
C       2.82      18.07       5.48
C       4.67      16.49       5.35
C       5.79      15.85       6.10
C       8.75      16.82      23.60
C       7.39      16.12      25.45
C       7.58      14.76      25.12
C       8.96      15.47      23.24
C       9.77      14.96      22.11
C      18.91      24.94       5.53
C      17.04      25.37       4.08
C      17.50      26.67       3.81
C      19.35      26.27       5.35
C      20.57      26.84       5.97
C       7.72       2.81       3.29
C       9.03       4.57       4.25
C       9.22       3.83       5.44
C       7.89       2.05       4.47
C       7.34       0.68       4.64
C      19.42      11.75      23.98
C      20.21       9.81      22.82
C      20.27      10.53      21.60
C      19.54      12.51      22.78
C      19.30      13.96      22.72
C      12.45      10.43       4.15
C      14.63      10.60       3.13
C      14.31      11.85       2.58
C      12.07      11.64       3.52
C      10.73      12.25       3.66
C       1.37       3.47      22.32
C       3.28       3.38      23.78
C       2.80       2.20      24.39
C       0.85       2.31      22.93
C      20.85       1.60      22.59
C       3.24      12.70      11.52
C       2.18      10.56      11.33
C       2.21      10.65       9.93
C       3.37      12.77      10.11
C       4.06      13.87       9.40
C      14.84       2.35      17.67
C      12.76       3.54      17.91
C      13.18       4.11      19.13
C      15.30       2.93      18.88
C      16.61       2.61      19.48
C      18.58       3.82       9.39
C      17.47       2.75      11.23
C      17.60       1.48      10.62
C      18.68       2.57       8.72
C      19.28       2.31       7.39
C       7.62      10.74      19.43
C       6.55      11.92      17.64
C       5.97      12.83      18.55
C       7.11      11.69      20.35
C       7.38      11.63      21.81
C      16.71      15.93      17.89
C      18.25      17.72      18.25
C      18.56      17.25      19.55
C      16.90      15.49      19.23
C      16.26      14.33      19.88
C       8.30      25.83      10.73
C       9.38      24.01       9.61
C       9.58      24.79       8.44
C       8.45      26.62       9.56
C       7.98      28.03       9.46
C       1.72      24.16      18.46
C       2.20      25.52      16.55
C       3.20      26.21      17.27
C       2.61      24.97      19.23
C       2.88      24.72      20.67
C      11.79      17.62       8.11
C      12.31      17.77      10.45
C      12.41      16.37      10.53
C      11.79      16.20       8.21
C      11.46      15.25       7.12
H      14.06       0.21       0.48
H      17.82      27.13      27.07
H      18.26       1.37       3.57
H      19.23       1.73       2.29
H      13.06      28.07      23.36
H      12.35       1.01      24.34
H      15.99      25.65      26.13
H      15.22      26.64       2.11
H       4.62      12.57       0.37
H       8.43      14.62       1.47
H       8.96      11.96      25.08
H      10.15      11.99      26.23
H       3.09      14.13       5.25
H       2.42      12.86       4.45
H       6.37      15.81       2.35
H       5.44      14.09      26.77
H       8.63      21.36      21.07
H      12.48      19.51      22.17
H      13.21      24.04      19.56
H      14.15      22.70      19.31
H       6.65      16.48      22.21
H       5.80      17.62      21.42
H      10.71      18.58      23.42
H      10.03      22.86      22.49
H      20.29      20.34       7.29
H       2.16      23.06       6.03
H       3.53      18.54       8.29
H       4.19      20.00       8.68
H      18.03      25.12       8.00
H      17.78      23.87       9.02
H      21.22      23.71       4.99
H       0.32      19.35       5.36
H       7.09       1.68      26.40
H       3.96       0.59       1.02
H       2.67      27.57      24.29
H       2.26      26.66      25.60
H      10.04       1.88       2.75
H      10.72       1.74       1.27
H       5.40       2.31       2.04
H       5.03       2.88      25.88
H      18.82      12.24       0.93
H      15.78      14.21      26.53
H      14.63      14.53       3.47
H      14.34      15.76       2.39
H       0.49      12.67      24.65
H       1.13      12.73      26.16
H      17.15      12.48      25.23
H      16.57      11.19       1.12
H      12.15       7.33       8.10
H       8.38       8.04       6.49
H       8.38       2.99       8.30
H       7.20       4.00       8.79
H      12.97      12.24       6.11
H      13.59      11.75       7.56
H      10.45       8.65       4.53
H      11.48       5.30       6.17
H       1.66       7.04      18.82
H      18.95       6.24      20.46
H      18.64      11.44      19.27
H      17.35      10.45      19.04
H       2.15       1.89      20.26
H       3.04       2.56      19.04
H      20.75       5.30      21.93
H       0.87       8.89      20.47
H       1.85      14.72      15.88
H       5.76      15.79      14.66
H       6.78      15.22      19.89
H       7.58      16.31      18.94
H       1.19      14.18      10.56
H      -0.00      14.68      11.56
H       4.98      13.63      13.32
H       3.73      13.10      17.10
H      14.86      26.93      14.15
H      18.72       0.61      14.97
H      19.06      27.11       9.89
H      20.35      26.91      10.87
H      14.26       0.23      19.27
H      13.53      27.05      18.64
H      16.76       2.09      15.83
H      15.60       0.47      12.24
H      19.16       8.92       8.71
H       1.17       6.11       7.53
H       4.55       9.87       9.37
H       5.04       8.50       8.67
H      16.43       4.39       8.05
H      15.75       5.87       7.89
H      20.89       5.10       9.04
H      21.15       9.51       9.65
H       8.67       5.69      19.12
H      11.63       8.60      21.12
H      13.40       3.79      21.96
H      13.75       5.10      22.90
H       5.33       9.70      20.16
H       4.85       8.16      19.88
H       9.98       9.61      19.91
H      10.83       5.42      18.56
H      16.10      14.54      13.00
H      12.57      15.70      15.64
H      10.08      15.17      11.00
H       9.32      15.16      12.45
H      18.32      13.83      17.83
H      18.93      13.18      16.47
H      14.53      16.23      16.49
H      14.57      15.81      11.96
H       7.90      26.62      15.85
H       4.77       0.09      13.05
H       2.44       0.56      17.83
H       2.20       1.67      16.66
H      10.61      26.85      11.27
H      11.30      27.01      12.74
H       6.07      26.53      12.06
H       5.66      25.86      16.35
H       1.91      19.09      19.69
H      20.00      21.62      21.34
H      18.34      16.73      22.42
H      18.03      18.03      23.38
H       3.93      23.42      17.28
H       4.64      21.94      17.33
H      21.05      22.70      19.57
H      20.95      18.31      19.01
H      13.40      21.95       6.97
H       9.34      20.90       5.36
H       8.72      26.11       6.01
H       7.79      25.20       5.01
H      13.93      16.63       6.54
H      15.26      17.53       6.80
H      10.22      19.28       6.77
H      11.63      23.13       8.02
H      19.97      26.99      26.62
H       0.91       1.30       3.06
H       2.16       1.84       1.98
H       2.05      27.51       3.42
H      10.63      15.22       1.61
H      12.51      13.71      24.64
H      13.91      13.10      25.50
H      13.43      15.81      24.63
H      14.62      19.24      22.83
H      17.03      23.42      19.89
H      18.33      22.29      19.65
H      17.99      24.09      21.87
H       4.30      23.59       5.17
H       7.26      20.76       8.92
H       8.72      21.07       8.05
H       6.90      18.89       7.63
H       1.10      14.04       2.63
H       2.24       9.49      27.56
H       1.13      10.19      26.41
H       0.46       8.72       0.59
H      11.28      26.96      27.19
H      11.26       4.52      26.58
H       9.95       4.34      27.74
H       9.75       4.08      24.90
H       5.99      21.55      21.73
H       5.60      17.99      17.27
H       4.45      19.21      16.78
H       3.89      16.93      18.42
H      18.24      19.55       6.52
H      15.04      21.83      10.52
H      13.66      21.32       9.57
H      15.09      23.79       9.31
H       6.27       7.79       5.55
H       4.41       4.30       9.66
H       3.32       5.66       9.93
H       2.91       3.45       8.14
H      17.23       6.29      21.88
H      14.45      10.59      19.45
H      13.15       9.45      19.30
H      13.76      11.11      21.57
H      15.35      10.17       6.67
H      14.76       7.38      11.57
H      15.01       5.98      10.54
H      17.03       7.54      11.83
H       4.59       4.01      20.32
H       4.78       7.44      15.79
H       4.74       8.66      17.06
H       7.07       7.40      15.96
H       8.98      14.72      17.43
H       8.28      18.76      13.51
H       9.07      17.68      12.39
H      10.35      19.36      14.31
H      20.62       1.93      14.73
H       1.82      26.11      11.55
H       3.05      26.14      12.79
H       2.90      27.81      10.45
H      11.81       0.08      17.11
H      12.11      23.36      14.29
H      11.95      24.39      12.87
H       9.83      23.24      14.41
H      21.06      12.32      13.93
H      19.21      17.72      14.10
H      17.79      17.02      14.85
H      18.35      17.12      12.05
H      11.46      23.75      24.35
H      15.00      27.13      21.41
H      16.04      25.74      21.67
H      15.90      28.10      23.22
H       1.69      18.14       3.67
H       5.70      14.76       6.07
H       5.74      16.15       7.15
H       7.24      15.85       4.75
H       6.87      16.41      26.28
H       9.15      14.32      21.48
H      10.56      14.33      22.53
H       9.78      16.32      20.68
H      16.24      24.96       3.59
H      20.73      27.87       5.63
H       0.17      26.25       5.67
H       0.00      27.19       7.78
H       9.39       5.51       4.12
H       7.51       0.32       5.66
H       6.26       0.71       4.48
H       8.86      27.80       3.91
H      20.38       8.81      22.88
H      19.37      14.31      21.69
H      18.31      14.19      23.10
H      20.14      15.59      23.46
H      15.57      10.20       3.05
H      10.64      13.12       3.00
H       9.97      11.52       3.36
H       9.59      13.05       5.05
H       4.17       3.81      24.03
H      21.07       0.54      22.43
H      20.19       1.67      23.45
H      20.59       1.83      20.64
H       1.78       9.75      11.81
H       4.10      13.66       8.33
H       5.09      13.93       9.77
H       3.92      15.82       9.12
H      11.83       3.71      17.51
H      16.67       1.54      19.68
H      16.72       3.14      20.44
H      18.51       2.79      19.02
H      17.10       2.86      12.17
H      18.61       1.67       6.81
H      20.21       1.76       7.55
H      18.78       3.87       6.29
H       6.40      11.99      16.63
H       6.97      12.52      22.30
H       8.46      11.62      21.97
H       7.00      10.46      23.35
H      18.69      18.55      17.86
H      17.03      13.64      20.25
H      15.72      14.71      20.76
H      15.78      13.01      18.49
H       9.67      23.03       9.66
H       8.10       0.24       8.44
H       6.92      28.06       9.70
H       9.60       0.82      10.08
H       2.06      25.68      15.55
H       3.29      23.72      20.80
H       3.61      25.44      21.05
H       1.85      24.68      22.35
H      12.47      18.38      11.26
H      12.33      14.61       6.92
H      10.66      14.60       7.48
H      11.75      16.13       5.37
N      12.89       0.21      24.26
N      18.68       1.07       2.75
N       2.96      13.67       4.41
N       9.36      12.41      25.84
N       6.65      17.36      21.81
N      13.56      23.19      19.90
N      18.04      24.16       8.13
N       3.79      19.43       8.00
N       9.91       1.91       1.78
N       2.43      27.54      25.23
N       0.37      12.49      25.60
N      14.48      14.81       2.55
N      13.17      11.51       6.71
N       7.89       3.81       8.14
N       2.46       2.69      19.80
N      18.18      10.61      19.51
N       0.90      14.32      11.47
N       7.03      15.51      18.99
N      13.99      27.90      18.48
N      19.52      27.38      10.71
N      16.48       5.34       8.25
N       4.31       9.10       8.84
N       5.55       8.83      19.79
N      13.52       4.76      22.02
N      18.31      13.81      16.87
N      10.10      15.42      11.93
N      10.55      26.68      12.22
N       2.48       0.77      16.89
N       3.90      22.51      17.62
N      18.26      17.70      22.50
N      14.30      17.49       6.79
N       8.35      25.24       5.80
N       0.56      27.58      27.19
N      20.89       0.13       1.34
N      12.48      15.03       0.75
N      11.31      14.15      26.75
N      16.54      19.75      22.40
N      15.65      21.85      21.14
N       6.30      23.23       5.48
N       5.60      21.26       7.08
N       0.08      12.94       1.26
N       2.34      11.57       0.81
N       9.85       0.27      27.26
N      11.83       2.05      26.76
N       4.57      21.10      20.32
N       6.17      19.12      19.47
N      16.28      19.65       6.98
N      16.81      21.70       8.57
N       4.46       7.46       6.45
N       5.63       5.54       7.87
N      15.28       6.81      21.69
N      16.02       8.94      20.37
N      16.53       9.07       7.89
N      14.30       8.25       9.14
N       5.91       5.26      19.46
N       3.91       6.21      17.96
N      10.09      15.44      15.90
N       7.97      16.87      15.13
N       1.27       1.27      14.49
N       0.41      27.82      12.61
N      10.56      27.11      15.98
N      12.72      25.78      15.11
N      19.20      13.20      14.04
N      20.49      15.57      14.07
N      12.98      25.07      24.71
N      13.54      24.98      22.12
N       3.20      16.76       3.52
N       3.93      17.44       5.98
N       7.95      17.08      24.67
N       8.39      14.53      24.04
N      17.77      24.56       4.90
N      18.63      27.03       4.49
N       8.32       4.03       3.24
N       8.59       2.61       5.49
N      19.79      10.45      23.94
N      19.91      11.84      21.65
N      13.72       9.99       3.93
N      13.02      12.27       2.77
N       2.57       3.93      22.77
N       1.59       1.77      23.94
N       2.65      11.60      12.05
N       2.86      11.73       9.39
N      13.58       2.68      17.26
N      14.45       3.78      19.52
N      17.96       3.83      10.60
N      18.22       1.47       9.40
N       7.30      10.90      18.12
N       6.33      12.70      19.86
N      17.39      17.03      17.48
N      17.82      16.18      19.97
N       8.80      24.57      10.69
N       9.06      26.05       8.49
N       1.56      24.49      17.15
N       3.33      25.93      18.60
N      12.05      18.32       9.25
N      12.09      15.65       9.42
O       2.56       0.09       3.00
O      14.04      15.06      24.85
O      18.56      23.60      21.24
O       7.79      19.30       7.56
O       0.24       9.03      27.83
O       9.36       4.30      25.78
O       3.62      17.60      17.76
O      14.28      23.24       9.19
O       2.57       4.16       8.74
O      13.12      10.62      21.00
O      16.69       6.69      11.47
O       6.62       8.17      16.39
O      10.34      18.88      13.45
O       3.42      27.33      11.14
O      10.20      23.58      13.56
O      17.72      17.10      12.81
O      16.34      27.25      22.99
O       7.07      16.27       5.62
O      10.44      15.93      21.30
O      20.44      26.82       7.39
O       7.90      27.90       3.71
O      20.30      14.62      23.51
O      10.50      12.67       5.01
O      20.11       2.09      21.46
O       3.40      15.13       9.60
O      17.65       3.02      18.60
O      19.62       3.46       6.60
O       6.78      10.46      22.39
O      15.29      13.61      19.11
O       8.66       0.74      10.37
O       1.65      24.86      21.40
O      10.98      15.82       5.89
