208

Pr      -0.92       8.76       0.24
Pr       2.53       4.87       5.49
Pr      -2.33      -0.05       6.94
Pr       9.18       1.01       1.69
Pr      -4.53       6.04       5.19
Pr      -0.80       1.99       0.26
Pr       5.45       9.88       1.99
Pr       8.34      -3.31       6.92
Pr       5.10      -1.55      14.12
Pr       1.65       2.33       8.87
Pr       6.51       7.25       7.42
Pr      -5.01       6.19      12.67
Pr       8.70       1.17       9.17
Pr       4.98       5.21      14.10
Pr      -1.28      -2.67      12.37
Pr      -4.16      10.52       7.44
H      -0.27       6.29       3.24
H      -1.17       9.02       3.92
H      11.81      -0.71       3.94
H      14.62      -0.14       3.26
H      -2.83       2.96       3.39
H      -1.29       4.27       5.53
H       1.94       9.82       3.79
H       2.31      11.81       1.65
H       4.45       0.91      11.12
H       5.35      -1.81      10.44
H      -7.63       7.92      10.42
H     -10.44       7.34      11.10
H       7.01       4.24      10.97
H       5.47       2.93       8.83
H       2.23      -2.61      10.57
H       1.86      -4.61      12.71
C       0.53       6.66       2.97
C       1.95       7.76       1.86
C       2.62       7.10       2.87
C       4.03       6.96       3.32
C       2.35       8.73       0.77
C      -0.95       9.87       3.62
C      -0.56      11.50       2.32
C      -0.47      11.93       3.65
C       8.16      -1.19       4.28
C      -0.42      12.10       0.99
C      11.73       0.17       4.21
C      11.98       1.94       5.32
C      11.07       2.20       4.31
C      10.25       3.35       3.86
C      -3.98       2.77       6.41
C      -1.35       0.48       3.56
C      -0.13       1.63       4.86
C       0.19       1.92       3.53
C       1.12       2.89       2.90
C       0.32       2.05       6.19
C      -2.71       3.73       2.88
C      -2.83       5.72       2.21
C      -2.08       5.01       1.29
C      -1.39       5.29       0.00
C      -3.26       7.17       2.35
C      -1.12       5.16       5.77
C      -1.44       7.20       6.25
C      -0.08       6.89       6.38
C       1.12       7.70       6.70
C      -2.30       8.38       6.43
C       2.55      10.31       4.30
C       4.34      11.19       4.97
C      11.59      -2.92       5.89
C      11.50      -2.18       7.18
C       5.80      11.54       4.84
C       3.00      12.39       1.41
C       4.93      13.13       0.93
C      12.24      -0.25       0.80
C      12.34       1.20       0.48
C       6.38      12.97       0.75
C       3.65       0.54      11.40
C       2.23      -0.56      12.50
C       1.55       0.11      11.49
C       0.15       0.24      11.04
C       1.83      -1.52      13.60
C       5.13      -2.66      10.74
C       4.74      -4.30      12.04
C       4.64      -4.72      10.71
C      -3.98       8.40      10.08
C       4.59      -4.90      13.37
C      -7.55       7.03      10.15
C      -7.80       5.26       9.04
C      -6.89       5.00      10.05
C      -6.07       3.85      10.50
C       8.16       4.43       7.95
C       5.53       6.73      10.80
C       4.31       5.58       9.50
C       3.98       5.28      10.83
C       3.05       4.31      11.46
C       3.86       5.16       8.17
C       6.89       3.47      11.48
C       7.01       1.49      12.15
C       6.26       2.19      13.07
C       5.57       1.91      14.36
C       7.44       0.04      12.02
C       5.30       2.05       8.59
C       5.62       0.00       8.11
C       4.26       0.31       7.98
C       3.06      -0.50       7.66
C       6.48      -1.18       7.93
C       1.63      -3.10      10.06
C      -0.16      -3.98       9.39
C      -7.42      10.12       8.47
C      -7.32       9.38       7.18
C      -1.63      -4.33       9.53
C       1.18      -5.19      12.95
C      -0.75      -5.93      13.43
C      -8.06       7.45      13.57
C      -8.17       6.01      13.88
C      -2.20      -5.77      13.61
N       1.68       6.40       3.60
N       0.59       7.47       1.93
N      -0.87      10.14       2.34
N      -0.70      10.86       4.48
N      10.93       1.03       3.58
N      12.40       0.63       5.25
N      -1.15       0.68       4.84
N      -0.61       1.19       2.70
N      -1.99       3.71       1.76
N      -3.24       4.88       3.24
N      -2.09       6.04       5.84
N       0.12       5.58       6.05
N       2.17      10.92       5.42
N       3.81      10.42       3.94
N       4.24      11.99       1.34
N       2.75      13.68       1.13
N       2.50       0.81      10.76
N       3.58      -0.27      12.43
N       5.05      -2.94      12.02
N       4.87      -3.66       9.88
N      -6.75       6.17      10.78
N      -8.23       6.58       9.11
N       5.33       6.52       9.52
N       4.79       6.01      11.66
N       6.16       3.50      12.60
N       7.42       2.32      11.12
N       6.27       1.17       8.52
N       4.06       1.62       8.31
N       2.01      -3.72       8.94
N       0.37      -3.22      10.42
N      -0.07      -4.79      13.02
N       1.43      -6.48      13.23
O       4.24       6.06       4.17
O       4.95       7.68       2.86
O       3.55       9.13       0.75
O      -2.71       1.83      14.30
O       8.31      -1.24       5.52
O       8.28      -0.16       3.57
O      -0.29      13.37       0.83
O      -4.67       4.13      14.33
O       9.36       3.08       3.01
O      10.42       4.51       4.32
O      -4.23       4.01       6.43
O      -3.28       2.16       7.24
O       1.01       2.99       1.66
O       1.96       3.50       3.61
O       1.36       2.79       6.35
O      -0.31       1.60       7.21
O      -5.18      -2.92      13.73
O      -5.43      -0.74      13.93
O      -2.80       8.00       1.51
O      -4.07       7.43       3.26
O       2.21       7.11       6.55
O       0.98       8.88       7.12
O      -1.85       9.47       6.96
O      -3.53       8.28       6.11
O      10.42      -2.34       7.81
O      12.44      -1.48       7.61
O      -2.06      -2.06       5.67
O       6.43      10.97       3.92
O      11.29       1.85       0.63
O      13.44       1.66       0.06
O       7.10      13.90       0.22
O       6.91      11.86       1.07
O      -0.06       1.15      10.19
O      -0.77      -0.47      11.50
O       0.63      -1.93      13.61
O       6.88       5.37       0.06
O      -4.13       8.44       8.84
O      -4.10       7.36      10.79
O       4.46      -6.17      13.53
O       8.84       3.07       0.03
O      -5.19       4.12      11.35
O      -6.24       2.70      10.04
O       8.40       3.19       7.93
O       7.46       5.04       7.12
O       3.17       4.21      12.71
O       2.22       3.70      10.75
O       2.82       4.41       8.01
O       4.49       5.60       7.15
O       9.35      10.13       0.63
O       9.61       7.95       0.43
O       6.98      -0.79      12.85
O       8.24      -0.23      11.10
O       1.97       0.09       7.81
O       3.20      -1.68       7.24
O       6.03      -2.26       7.40
O       7.71      -1.08       8.25
O      -6.25       9.55       6.55
O      -8.26       8.68       6.75
O       6.23       9.26       8.69
O      -2.26      -3.76      10.44
O      -7.11       5.36      13.73
O      -9.26       5.54      14.30
O      -2.92      -6.70      14.14
O      -2.73      -4.65      13.29
