486

H      29.36       5.10      33.91
H      29.26       7.30      33.00
H      25.35       4.46      32.80
H      25.24       6.64      31.90
H      24.64       9.02      32.70
H      23.91      10.26      34.58
H      27.92      11.08      35.60
H      28.65       9.81      33.72
H      28.07      11.22      31.38
H      30.10      12.08      30.52
H      31.33       8.19      29.47
H      29.28       7.32      30.33
H      26.72       6.87      29.56
H      25.58      10.73      30.80
H      24.02      10.85      29.00
H      25.17       6.99      27.76
H      10.67       8.47      19.74
H      12.63       7.46      18.83
H      12.13      12.26      18.64
H      14.07      11.26      17.74
H      16.43      10.60      18.53
H      17.87      10.61      20.41
H      16.58       6.74      21.43
H      15.12       6.73      19.55
H      16.62       6.52      17.22
H      16.35       4.33      16.34
H      12.37       5.22      15.29
H      12.64       7.43      16.16
H      13.53       9.87      15.39
H      17.44       8.92      16.63
H      18.32      10.21      14.83
H      14.41      11.15      13.59
H      22.94      23.01       5.40
H      21.08      21.82       4.51
H      25.45      19.75       4.52
H      23.61      18.57       3.63
H      21.86      16.82       4.32
H      21.17      15.59       6.22
H      18.63      18.74       7.37
H      19.34      19.99       5.48
H      18.26      18.63       3.22
H      16.41      19.82       2.34
H      19.00      22.86       1.01
H      20.86      21.68       1.90
H      22.68      19.78       1.22
H      19.95      16.82       2.46
H      20.64      15.43       0.66
H      23.35      18.39      41.93
H      -8.70      31.55      12.51
H      -8.59      29.34      11.61
H      -4.63      32.12      11.59
H      -4.52      29.94      10.71
H      -3.86      27.55      11.42
H      -3.13      26.33      13.31
H      -7.13      25.69      14.46
H      -7.87      26.93      12.57
H      -7.22      25.32      10.32
H      -9.17      24.31       9.43
H     -10.52      28.06       8.09
H      -8.56      29.09       8.99
H      -6.00      29.72       8.31
H      -4.81      25.88       9.56
H      -3.26      25.78       7.76
H      -4.46      29.61       6.51
H      10.04      28.13      40.98
H       8.09      29.15      40.07
H       8.55      24.33      39.91
H       6.61      25.35      39.00
H       4.26      26.03      39.78
H       2.83      26.03      41.66
H       4.15      29.89       0.17
H       5.61      29.89      40.80
H       4.10      30.10      38.46
H       4.38      32.29      37.60
H       8.36      31.40      36.56
H       8.08      29.19      37.42
H       7.19      26.75      36.64
H       3.27      27.70      37.87
H       2.40      26.41      36.07
H       6.31      25.48      34.84
H      -2.20      13.66      26.83
H      -0.35      14.85      25.91
H      -4.76      16.82      25.72
H      -2.93      18.00      24.82
H      -1.18      19.71      25.62
H      -0.46      20.96      27.50
H       2.25      17.90      28.52
H       1.52      16.64      26.64
H       2.44      17.84      24.30
H       4.21      16.51      23.43
H       1.46      13.50      22.38
H      -0.32      14.84      23.25
H      -1.99      16.83      22.47
H       0.78      19.75      23.72
H       0.11      21.15      21.92
H      -2.66      18.23      20.67
H      25.67      15.62      39.07
H      22.00       9.02      36.92
H      21.16      10.51      36.46
H      20.67       9.62      37.93
H      23.62      12.15      35.97
H      24.37      16.36      41.07
H      21.63       6.41      24.91
H      17.74      12.87      22.77
H      19.44      12.84      22.28
H      18.94      13.73      23.75
H      19.65       9.93      21.80
H      22.90       7.16      26.91
H      15.68      14.49      10.74
H      23.21      14.63       8.59
H      22.33      13.18       8.11
H      23.36      13.17       9.57
H      19.66      14.43       7.61
H      15.69      13.03      12.76
H      -4.92      21.01      17.82
H      -1.27      27.60      15.68
H      -0.45      26.11      15.19
H       0.07      27.00      16.65
H      -2.87      24.43      14.70
H      -3.65      20.29      19.83
H      -0.91      30.22       3.65
H       2.97      23.75       1.50
H       1.26      23.77       1.03
H       1.79      22.90       2.50
H       1.07      26.71       0.54
H      -2.19      29.47       5.65
H       5.05      22.11      31.99
H      -2.48      21.98      29.85
H      -1.61      23.44      29.36
H      -2.63      23.44      30.83
H       1.02      22.16      28.88
H       5.04      23.59      34.00
H       7.28      35.35      33.85
H      24.66       4.49      37.26
H      23.76       3.19      38.04
H      23.74       3.36      36.26
H      25.66       2.74      34.36
H       5.08      33.54      35.31
H       5.42      12.48      19.68
H      12.51      12.85      23.09
H      11.83      14.28      23.87
H      11.98      14.21      22.09
H      10.49      12.86      20.19
H       4.93      15.28      21.13
H      26.07      19.30       9.09
H      27.71      19.26       9.75
H      27.44      19.11       7.99
H      26.80      20.95       6.08
H      13.44       1.27      12.60
H      -3.93      32.12      16.00
H      -3.04      33.42      16.80
H      -3.01      33.25      15.02
H      -4.97      33.84      13.12
H      15.67       3.07      14.07
H      15.31      24.66      40.86
H       8.47      23.62       2.01
H       9.23      22.16       2.65
H       8.98      22.35       0.89
H      10.25      23.74      41.48
H      16.93      23.49      42.40
H      34.20      11.11      26.77
H      -5.08      17.43      30.17
H      -6.66      17.56      30.96
H      -6.52      17.66      29.18
H      -6.10      15.69      27.27
H      31.53      12.09      28.22
H     -13.92      25.78       5.43
H     -12.09      26.58       6.97
C      24.38       8.90      28.24
C      24.57       9.99      29.12
C      25.49       9.91      30.19
C      26.24       8.73      30.46
C      26.14       7.71      29.48
C      25.22       7.78      28.41
C      27.18       8.61      31.67
C      28.48       9.15      31.06
C      29.44       8.32      30.40
C      30.65       8.84      29.88
C      30.91      10.22      29.91
C      29.94      11.07      30.47
C      28.74      10.55      31.00
C      26.72       9.38      32.92
C      27.27       7.19      32.24
C      28.43       6.71      32.91
C      28.49       5.41      33.46
C      27.38       4.55      33.43
C      26.19       5.04      32.84
C      26.14       6.33      32.29
C      25.35       9.47      33.28
C      24.92      10.21      34.40
C      25.84      10.86      35.24
C      27.21      10.66      34.98
C      27.64       9.92      33.86
C      16.46      10.87      14.08
C      17.31      10.16      14.95
C      16.78       9.41      16.02
C      15.38       9.35      16.30
C      14.55       9.95      15.31
C      15.06      10.71      14.25
C      14.80       8.59      17.50
C      14.62       7.20      16.89
C      13.43       6.79      16.23
C      13.27       5.49      15.70
C      14.33       4.56      15.73
C      15.56       4.98      16.30
C      15.70       6.27      16.83
C      15.70       8.61      18.75
C      13.53       9.23      18.07
C      12.53       8.47      18.74
C      11.38       9.07      19.29
C      11.19      10.47      19.27
C      12.21      11.24      18.67
C      13.36      10.64      18.12
C      16.46       9.76      19.11
C      17.32       9.77      20.23
C      17.43       8.64      21.07
C      16.57       7.55      20.81
C      15.71       7.55      19.69
C      22.12      16.74      42.41
C      21.09      16.34       0.77
C      20.69      17.16       1.85
C      21.33      18.41       2.13
C      22.25      18.85       1.14
C      22.66      18.03       0.07
C      20.95      19.28       3.34
C      19.77      20.07       2.77
C      19.93      21.28       2.04
C      18.83      21.98       1.49
C      17.51      21.47       1.61
C      17.35      20.23       2.26
C      18.45      19.54       2.79
C      20.58      18.50       4.61
C      22.14      20.09       3.87
C      22.00      21.38       4.46
C      23.10      22.08       5.01
C      24.39      21.51       5.05
C      24.54      20.21       4.52
C      23.44      19.51       3.97
C      21.15      17.24       4.93
C      20.75      16.50       6.06
C      19.77      17.01       6.95
C      19.30      18.32       6.73
C      19.72      19.05       5.60
C      -3.65      27.71       7.00
C      -3.82      26.62       7.88
C      -4.74      26.69       8.95
C      -5.50      27.87       9.22
C      -5.42      28.89       8.23
C      -4.50      28.83       7.16
C      -6.44      27.98      10.43
C      -7.72      27.34       9.86
C      -8.68      28.08       9.12
C      -9.84      27.47       8.57
C     -10.05      26.08       8.69
C      -9.06      25.32       9.35
C      -7.91      25.93       9.88
C      -5.95      27.27      11.70
C      -6.57      29.42      10.96
C      -7.75      29.93      11.55
C      -7.82      31.23      12.10
C      -6.69      32.07      12.13
C      -5.48      31.56      11.59
C      -5.42      30.26      11.05
C      -4.57      27.14      12.03
C      -4.13      26.42      13.15
C      -5.06      25.82      14.04
C      -6.43      26.07      13.82
C      -6.86      26.79      12.69
C       4.26      25.75      35.32
C       3.41      26.46      36.19
C       3.93      27.21      37.26
C       5.33      27.27      37.54
C       6.17      26.67      36.56
C       5.66      25.91      35.49
C       5.91      28.02      38.75
C       6.09      29.42      38.14
C       7.29      29.83      37.49
C       7.46      31.13      36.97
C       6.40      32.06      37.00
C       5.17      31.64      37.55
C       5.02      30.35      38.08
C       5.01      28.01      40.00
C       7.17      27.38      39.32
C       8.18      28.13      39.99
C       9.33      27.53      40.54
C       9.50      26.13      40.52
C       8.47      25.35      39.94
C       7.33      25.96      39.38
C       4.24      26.87      40.36
C       3.39      26.87      41.48
C       3.29      27.99      42.33
C       4.15      29.08      42.07
C       5.00      29.08      40.94
C      -1.39      19.87      21.16
C      -0.36      20.25      22.04
C       0.03      19.42      23.11
C      -0.62      18.18      23.38
C      -1.55      17.75      22.40
C      -1.95      18.58      21.33
C      -0.25      17.30      24.58
C       0.87      16.44      23.98
C       0.63      15.20      23.32
C       1.67      14.42      22.80
C       3.01      14.88      22.83
C       3.26      16.15      23.39
C       2.21      16.92      23.92
C       0.18      18.08      25.83
C      -1.44      16.51      25.15
C      -1.28      15.27      25.83
C      -2.37      14.56      26.38
C      -3.68      15.10      26.35
C      -3.84      16.38      25.76
C      -2.75      17.07      25.20
C      -0.43      19.32      26.19
C      -0.01      20.06      27.31
C       1.02      19.59      28.16
C       1.54      18.30      27.90
C       1.11      17.56      26.78
C      24.22      12.97      37.74
C      24.96      14.88      38.97
C      23.83      14.83      39.81
C      23.09      12.86      38.60
C      22.11      11.87      38.49
C      21.52       9.92      37.31
C      24.39      12.22      36.59
C      23.61      15.76      40.82
C      20.06       9.00      23.57
C      21.34       7.39      24.81
C      21.86       8.40      25.65
C      20.54      10.03      24.43
C      20.18      11.38      24.32
C      18.77      12.84      23.14
C      19.32       9.22      22.42
C      22.78       8.11      26.66
C      18.70      14.56       9.41
C      16.67      14.26      10.65
C      17.29      13.31      11.49
C      19.36      13.63      10.28
C      20.70      13.27      10.17
C      22.67      13.76       8.97
C      19.26      15.07       8.26
C      16.58      12.66      12.50
C      -3.46      23.66      16.49
C      -4.22      21.75      17.72
C      -3.09      21.80      18.57
C      -2.33      23.77      17.36
C      -1.35      24.75      17.25
C      -0.79      26.69      16.05
C      -3.63      24.41      15.34
C      -2.88      20.87      19.58
C       0.66      27.64       2.32
C      -0.62      29.24       3.55
C      -1.14      28.23       4.39
C       0.19      26.61       3.18
C       0.56      25.26       3.07
C       1.95      23.79       1.88
C       1.40      27.41       1.16
C      -2.05      28.52       5.40
C       2.03      22.05      30.65
C       4.06      22.36      31.89
C       3.45      23.31      32.73
C       1.37      22.98      31.51
C       0.03      23.34      31.40
C      -1.94      22.85      30.22
C       1.47      21.52      29.50
C       4.15      23.96      33.74
C      26.92       1.24      34.92
C       6.70      35.92      34.48
C       6.01      35.33      35.56
C      26.24       0.67      36.03
C      25.32       1.34      36.84
C      24.36       3.45      37.16
C      26.62       2.49      34.39
C       5.87      33.98      35.74
C       8.56      12.52      20.74
C       6.20      12.70      20.31
C       6.04      13.59      21.38
C       8.41      13.40      21.86
C       9.45      13.85      22.67
C      11.76      13.63      22.99
C       9.79      12.16      20.22
C       4.93      14.38      21.57
C      27.46      22.85       6.49
C      28.35      22.65       7.59
C      28.33      21.54       8.44
C      27.10      19.60       8.90
C      26.55      21.91       6.03
C      -6.21      35.37      13.65
C      14.02       0.70      13.22
C      14.73       1.28      14.29
C      -5.51      35.94      14.76
C      -4.59      35.27      15.57
C      -3.63      33.16      15.91
C      -5.92      34.12      13.13
C      14.87       2.64      14.48
C      12.22      24.14      41.92
C      14.57      24.28      41.47
C      14.87      23.42       0.03
C      12.49      23.29       0.52
C      11.53      22.75       1.36
C       9.23      22.87       1.81
C      10.94      24.45      41.46
C      16.17      23.03       0.34
C      34.40      11.89      27.39
C      33.55      12.21      28.47
C      -6.13      17.17      30.08
C      32.30      11.64      28.65
C     -13.97      24.95       6.03
C     -13.07      24.77       7.11
C     -12.08      25.69       7.42
C      -6.77      13.85      27.83
C      -7.61      14.16      28.95
C      -7.48      15.28      29.76
C      -5.84      14.73      27.30
N      27.50       3.32      33.97
N      25.50      11.62      36.29
N      23.46       9.01      27.27
N      32.10      10.70      29.51
N      10.07      10.97      19.80
N      18.26       8.56      22.12
N      17.02      11.61      13.11
N      14.15       3.30      15.32
N      25.39      22.23       5.55
N      19.28      16.33       8.00
N      22.49      15.89      41.44
N      16.41      22.06       1.15
N      -6.81      33.30      12.67
N      -4.72      25.05      15.08
N      -2.73      27.61       6.03
N     -11.12      25.42       8.23
N      10.63      25.62      41.02
N       2.46      28.08       0.87
N       3.71      25.01      34.35
N       6.58      33.32      36.59
N      -4.68      14.38      26.88
N       1.51      20.27      29.21
N      -1.76      20.72      20.19
N       4.02      14.09      22.43
N      25.10      13.98      37.97
N      22.96      13.81      39.58
N      20.50       7.73      23.80
N      21.42       9.67      25.41
N      17.39      14.81       9.64
N      18.60      13.06      11.26
N      -4.34      22.65      16.72
N      -2.21      22.82      18.34
N       0.23      28.91       2.55
N      -0.69      26.97       4.16
N       3.35      21.79      30.88
N       2.13      23.56      32.49
N      27.74       0.42      34.19
N       5.17      36.15      36.25
N       7.44      12.22      20.02
N       7.16      13.90      22.08
N      27.61      23.99       5.77
N      -7.03      36.20      12.93
N      15.56       0.46      14.98
N      13.28      24.59      41.20
N      13.80      22.98       0.75
N      33.83      13.33      29.17
N     -13.22      23.62       7.83
N      -7.07      12.73      27.11
O      21.20      11.88      39.32
O      22.50      10.65      38.09
O      20.65      12.16      25.14
O      18.92      11.64      23.93
O      21.16      12.50      11.00
O      21.57      14.23       9.77
O      -0.45      24.75      18.08
O      -1.74      25.97      16.85
O       0.10      24.49       3.90
O       1.81      24.99       2.66
O      -0.41      24.14      32.22
O      -0.83      22.38      31.01
O      24.83       0.73      37.78
O      25.55       2.64      37.09
O       9.16      14.59      23.61
O      10.46      13.00      22.92
O      29.19      21.47       9.30
O      27.14      21.04       8.79
O      -4.08      35.89      16.49
O      -4.82      33.97      15.82
O      11.90      21.98       2.25
O      10.50      23.54       1.72
O      -8.26      15.41      30.70
O      -6.24      15.74      30.01
