582

Si      27.72       8.84      32.12
Si      15.27       8.76      17.81
Si      21.43      19.58       3.51
Si      -6.23      28.33      10.66
Si       6.23      28.41      39.27
Si       0.07      17.59      24.97
H      32.05       8.51      30.08
H      30.12       7.60      31.09
H      30.48      12.40      30.58
H      28.50      11.49      31.49
H      25.38      10.51      31.73
H      23.78      10.57      30.00
H      26.06       7.80      27.77
H      27.63       7.66      29.55
H      26.26       6.40      31.56
H      26.51       4.19      32.39
H      29.72       5.46      34.82
H      29.51       7.66      33.96
H      29.04      10.67      33.95
H      25.33       8.66      33.62
H      24.54       9.84      35.53
H      28.24      11.84      35.85
H      12.83       5.18      15.77
H      13.00       7.30      16.78
H      16.98       4.59      16.28
H      17.18       6.76      17.19
H      17.89       9.96      17.42
H      18.74      11.31      15.69
H      15.20      10.72      13.47
H      14.30       9.43      15.24
H      13.89      11.25      17.25
H      11.85      12.13      18.09
H      11.34       8.72      20.52
H      13.36       7.80      19.65
H      16.20       6.70      19.64
H      16.31      10.92      19.31
H      17.73      11.02      21.22
H      17.61       6.81      21.55
H      19.55      23.49       1.47
H      21.30      22.28       2.48
H      16.97      20.18       1.97
H      18.75      18.93       2.88
H      21.16      16.71       3.12
H      21.90      15.30       1.39
H      23.16      18.66      42.08
H      22.50      20.09       0.94
H      24.28      19.53       2.95
H      26.06      20.85       3.78
H      23.36      23.00       6.21
H      21.55      21.72       5.35
H      19.18      19.81       5.34
H      22.78      17.60       5.01
H      22.15      16.32       6.91
H      18.57      18.53       7.24
H     -10.55      28.66       8.62
H      -8.62      29.57       9.63
H      -8.98      24.77       9.12
H      -7.00      25.68      10.03
H      -3.88      26.66      10.27
H      -2.28      26.60       8.54
H      -4.57      29.37       6.31
H      -6.13      29.51       8.09
H      -4.76      30.78      10.10
H      -5.01      32.98      10.94
H      -8.22      31.72      13.36
H      -8.02      29.51      12.50
H      -7.55      26.50      12.49
H      -3.83      28.51      12.16
H      -3.04      27.33      14.07
H      -6.74      25.34      14.39
H       8.67      31.99      37.23
H       8.50      29.87      38.24
H       4.52      32.58      37.74
H       4.32      30.41      38.65
H       3.61      27.22      38.88
H       2.75      25.86      37.15
H       6.29      26.46      34.93
H       7.20      27.74      36.70
H       7.61      25.92      38.71
H       9.64      25.04      39.55
H      10.15      28.45      41.98
H       8.14      29.38      41.11
H       5.30      30.47      41.10
H       5.18      26.25      40.77
H       3.77      26.15      42.68
H       3.89      30.36       0.09
H       1.95      13.68      22.93
H       0.19      14.89      23.94
H       4.53      16.99      23.43
H       2.75      18.24      24.34
H       0.34      20.46      24.57
H      -0.40      21.87      22.84
H      -1.66      18.51      20.62
H      -1.00      17.08      22.39
H      -2.78      17.64      24.41
H      -4.56      16.32      25.24
H      -1.86      14.17      27.67
H      -0.05      15.45      26.81
H       2.32      17.36      26.79
H      -1.28      19.57      26.47
H      -0.66      20.85      28.37
H       2.92      18.64      28.70
H      25.80      15.55      40.00
H      24.94      17.02      41.65
H      23.37      13.97      37.58
H      24.22      12.62      35.81
H      27.21      11.12      38.34
H      21.50      14.61      42.01
H      25.75      12.23      41.39
H      26.99      13.37      40.85
H      27.12      10.52      40.78
H      22.66      11.94      39.75
H      21.85      12.18      41.29
H      20.40      12.25      39.48
H      22.05       7.07      25.69
H      23.75       7.08      27.35
H      21.90       9.96      23.27
H      20.30       9.90      21.50
H      17.50       8.06      24.04
H      23.39      11.26      27.70
H      19.20       8.77      27.09
H      19.56       7.13      26.55
H      17.03       8.43      26.48
H      20.49      11.59      25.44
H      21.11      12.18      26.98
H      21.89      13.39      25.17
H      16.58      14.56      11.38
H      15.74      13.08      13.04
H      19.16      13.24       8.97
H      19.90      14.66       7.19
H      19.71      18.00       9.73
H      19.54      11.30      13.40
H      19.48      16.18      12.78
H      17.87      16.68      12.24
H      20.27      18.22      12.17
H      21.27      13.65      11.14
H      21.47      12.82      12.68
H      22.13      11.53      10.87
H      -4.31      21.62      18.54
H      -3.44      20.15      20.19
H      -1.87      23.20      16.12
H      -2.72      24.55      14.35
H      -5.72      26.06      16.88
H      -0.00      22.56      20.55
H      -4.26      24.94      19.93
H      -5.50      23.80      19.39
H      -5.63      26.64      19.32
H      -1.17      25.23      18.29
H      -0.35      24.99      19.83
H       1.10      24.92      18.02
H      -0.55      30.10       4.23
H      -2.25      30.09       5.89
H      -0.40      27.21       1.81
H       1.20      27.27       0.04
H       4.00      29.11       2.58
H      -1.89      25.91       6.25
H       2.30      28.40       5.63
H       1.94      30.04       5.09
H       4.47      28.74       5.02
H       1.01      25.58       3.98
H       0.40      25.00       5.52
H      -0.39      23.78       3.72
H       4.92      22.61      32.84
H       5.76      24.09      34.50
H       2.34      23.93      30.43
H       1.59      22.52      28.65
H       1.79      19.17      31.19
H       1.96      25.87      34.86
H       2.02      20.99      34.24
H       3.62      20.49      33.70
H       1.23      18.95      33.63
H       0.23      23.52      32.60
H       0.02      24.35      34.13
H      -0.64      25.64      32.33
H      28.79       0.12      33.34
H      28.69       2.31      32.41
H       5.01      36.06      34.97
H       4.89      33.83      35.77
H       8.60      34.31      37.69
H      27.76       3.91      36.19
H      30.41       0.59      37.30
H       9.65      37.03      35.85
H       9.97      36.14      38.53
H      27.74       0.67      37.99
H      28.35       2.32      38.20
H      26.12       2.10      38.78
H       7.18      12.20      19.03
H       9.13      11.18      18.10
H       7.30      14.82      20.66
H       5.43      16.04      21.46
H       3.98      12.58      23.38
H      10.98      11.19      21.88
H       6.79      10.56      23.00
H       5.82      10.31      21.54
H       4.89      10.49      24.22
H       8.19      12.83      23.68
H       9.31      11.48      23.89
H      10.23      13.52      24.47
H      28.45      24.87       4.73
H      26.59      23.69       3.79
H     -12.24      23.46       6.35
H     -10.25      24.47       7.16
H     -12.52      27.45       9.08
H      25.68      22.08       7.58
H      27.23      26.03       8.69
H     -15.40      26.99       7.24
H     -14.79      27.71       9.92
H      28.49      23.68       9.38
H      26.77      23.39       9.59
H      28.07      21.57      10.17
H      -7.29      37.06      11.88
H      -7.20      34.86      10.95
H      16.49       1.11      13.51
H      16.61       3.34      14.31
H      12.89       2.86      16.23
H      -6.27      33.26      14.73
H      -8.91      36.58      15.84
H      11.84       0.14      14.39
H      11.53       1.03      17.07
H      -6.24      36.50      16.53
H      -6.85      34.86      16.74
H      -4.63      35.08      17.32
H      14.31      24.97      40.50
H      12.36      25.99      39.56
H      14.20      22.35      42.12
H      16.07      21.14       0.00
H      17.51      24.59       1.93
H      10.51      25.98       0.42
H      14.71      26.62       1.54
H      15.68      26.86       0.09
H      16.61      26.69       2.76
H      13.30      24.34       2.23
H      12.19      25.69       2.43
H      11.27      23.65       3.02
H      -6.95      12.31      26.19
H      -5.10      13.49      25.25
H      33.74      13.72      27.81
H      31.75      12.70      28.62
H      34.02       9.72      30.54
H      -4.18      15.09      29.03
H      -5.73      11.14      30.15
H      36.90      10.18      28.70
H      36.29       9.46      31.37
H      -7.00      13.49      30.84
H      -5.27      13.79      31.04
H      -6.57      15.60      31.63
C      26.30      10.97      35.85
C      25.49      10.02      35.19
C      25.96       9.33      34.07
C      27.24       9.61      33.52
C      28.08      10.49      34.24
C      27.62      11.17      35.39
C      27.90       7.26      32.62
C      28.88       6.95      33.60
C      29.00       5.64      34.12
C      28.15       4.61      33.67
C      27.17       4.91      32.70
C      27.03       6.22      32.21
C      26.63       9.01      30.87
C      29.13       9.45      31.48
C      30.18       8.62      31.02
C      31.33       9.16      30.41
C      31.49      10.56      30.25
C      30.42      11.38      30.66
C      29.25      10.84      31.23
C      25.53       9.90      30.92
C      24.60       9.97      29.87
C      24.74       9.18      28.71
C      25.89       8.36      28.61
C      26.83       8.29      29.66
C      17.83       8.92      21.55
C      17.42      10.10      20.89
C      16.58      10.04      19.76
C      16.18       8.79      19.21
C      16.53       7.62      19.94
C      17.34       7.68      21.08
C      13.82       9.40      18.32
C      13.05       8.71      19.29
C      11.86       9.25      19.81
C      11.39      10.50      19.36
C      12.15      11.20      18.40
C      13.35      10.67      17.90
C      15.97       9.62      16.56
C      15.10       7.23      17.17
C      13.85       6.74      16.71
C      13.75       5.47      16.11
C      14.88       4.64      15.94
C      16.13       5.15      16.36
C      16.24       6.44      16.92
C      17.29      10.12      16.62
C      17.81      10.90      15.57
C      17.06      11.17      14.40
C      15.77      10.58      14.31
C      15.24       9.81      15.36
C      20.29      17.29       7.24
C      21.52      17.05       6.58
C      21.88      17.81       5.46
C      21.00      18.78       4.91
C      19.81      19.07       5.63
C      19.46      18.33       6.78
C      22.71      20.52       4.01
C      22.49      21.53       4.99
C      23.56      22.29       5.50
C      24.88      22.07       5.05
C      25.11      21.07       4.09
C      24.05      20.29       3.59
C      21.82      18.55       2.26
C      20.19      20.50       2.86
C      20.39      21.82       2.41
C      19.35      22.55       1.80
C      18.06      21.98       1.63
C      17.88      20.64       2.05
C      18.93      19.90       2.62
C      21.60      17.15       2.31
C      22.02      16.31       1.26
C      22.63      16.83       0.10
C      22.76      18.24       0.00
C      22.35      19.08       1.05
C      -4.81      26.20      14.40
C      -3.99      27.15      13.74
C      -4.47      27.84      12.61
C      -5.74      27.56      12.06
C      -6.59      26.68      12.78
C      -6.13      26.01      13.93
C      -6.40      29.91      11.16
C      -7.38      30.23      12.14
C      -7.51      31.53      12.66
C      -6.66      32.56      12.21
C      -5.67      32.26      11.24
C      -5.53      30.95      10.75
C      -5.14      28.16       9.41
C      -7.64      27.72      10.01
C      -8.68      28.55       9.56
C      -9.83      28.01       8.96
C      -9.99      26.61       8.79
C      -8.92      25.79       9.21
C      -7.75      26.33       9.77
C      -4.03      27.27       9.46
C      -3.10      27.21       8.42
C      -3.24      27.99       7.25
C      -4.40      28.81       7.15
C      -5.33      28.88       8.20
C       3.67      28.25       0.09
C       4.08      27.07      42.35
C       4.92      27.13      41.22
C       5.31      28.38      40.67
C       4.97      29.55      41.39
C       4.16      29.49      42.54
C       7.68      27.77      39.78
C       8.44      28.47      40.75
C       9.63      27.92      41.27
C      10.10      26.67      40.82
C       9.35      25.97      39.86
C       8.15      26.50      39.36
C       5.53      27.55      38.02
C       6.40      29.94      38.63
C       7.65      30.43      38.17
C       7.75      31.70      37.57
C       6.62      32.53      37.40
C       5.37      32.02      37.82
C       5.25      30.73      38.38
C       4.21      27.05      38.07
C       3.69      26.27      37.03
C       4.44      26.00      35.86
C       5.72      26.59      35.76
C       6.25      27.36      36.82
C       1.20      19.88      28.70
C      -0.02      20.12      28.04
C      -0.39      19.36      26.92
C       0.50      18.40      26.36
C       1.68      18.11      27.09
C       2.03      18.84      28.24
C      -1.21      16.65      25.47
C      -0.99      15.64      26.45
C      -2.06      14.88      26.96
C      -3.38      15.10      26.51
C      -3.61      16.11      25.55
C      -2.55      16.88      25.05
C      -0.33      18.62      23.71
C       1.30      16.68      24.32
C       1.11      15.35      23.87
C       2.15      14.63      23.26
C       3.44      15.19      23.09
C       3.62      16.53      23.51
C       2.57      17.27      24.08
C      -0.11      20.02      23.77
C      -0.52      20.86      22.72
C      -1.13      20.34      21.56
C      -1.26      18.94      21.46
C      -0.86      18.09      22.51
C      23.12      15.96      41.99
C      22.42      14.80      41.60
C      22.93      13.89      40.65
C      24.20      14.16      40.06
C      24.90      15.33      40.42
C      24.38      16.21      41.38
C      24.77      13.33      39.05
C      24.17      13.37      37.77
C      24.67      12.57      36.72
C      25.79      11.74      36.93
C      26.40      11.72      38.20
C      25.89      12.49      39.28
C      22.12      12.67      40.35
C      26.53      12.40      40.64
C      23.74       9.18      27.69
C      23.09      10.37      27.29
C      22.04      10.38      26.34
C      21.64       9.15      25.75
C      22.31       7.96      26.11
C      23.33       7.97      27.08
C      20.64       9.07      24.74
C      20.97       9.57      23.46
C      20.03       9.54      22.42
C      18.75       8.98      22.62
C      18.43       8.47      23.90
C      19.35       8.52      24.98
C      21.40      11.70      26.04
C      18.96       8.01      26.33
C      17.56      12.04      13.38
C      18.92      12.00      12.99
C      19.45      12.91      12.04
C      18.58      13.87      11.44
C      17.22      13.89      11.81
C      16.72      13.00      12.77
C      19.01      14.78      10.43
C      19.28      14.24       9.15
C      19.72      15.07       8.11
C      19.88      16.46       8.32
C      19.60      17.00       9.59
C      19.18      16.17      10.67
C      20.91      12.81      11.74
C      18.94      16.76      12.03
C      -1.63      21.21      20.53
C      -0.92      22.37      20.14
C      -1.43      23.29      19.19
C      -2.70      23.01      18.60
C      -3.40      21.84      18.96
C      -2.88      20.96      19.92
C      -3.27      23.84      17.59
C      -2.68      23.80      16.31
C      -3.17      24.60      15.26
C      -4.29      25.43      15.47
C      -4.90      25.45      16.74
C      -4.40      24.68      17.82
C      -0.62      24.50      18.89
C      -5.03      24.77      19.18
C      -2.24      27.99       6.23
C      -1.59      26.80       5.83
C      -0.54      26.79       4.88
C      -0.14      28.02       4.29
C      -0.81      29.21       4.66
C      -1.83      29.20       5.62
C       0.86      28.10       3.28
C       0.53      27.60       2.00
C       1.47      27.63       0.96
C       2.75      28.19       1.16
C       3.07      28.71       2.44
C       2.15      28.65       3.52
C       0.10      25.47       4.58
C       2.54      29.16       4.87
C       3.94      25.13      34.84
C       2.58      25.17      34.44
C       2.04      24.26      33.49
C       2.91      23.30      32.90
C       4.28      23.28      33.27
C       4.78      24.17      34.23
C       2.48      22.39      31.89
C       2.22      22.93      30.61
C       1.77      22.10      29.57
C       1.61      20.71      29.78
C       1.90      20.18      31.05
C       2.31      21.00      32.13
C       0.59      24.36      33.20
C       2.56      20.41      33.48
C      28.24       3.31      34.22
C      28.00       3.10      35.60
C      28.01       1.81      36.17
C      28.33       0.70      35.34
C      28.58       0.91      33.96
C      28.52       2.19      33.41
C       6.90      36.51      35.82
C       5.78      35.70      35.53
C       5.71      34.39      36.02
C       6.73      33.85      36.84
C       7.86      34.67      37.10
C       7.98      35.99      36.59
C      27.66       1.70      37.62
C       9.22      36.80      36.83
C      10.22      11.08      19.92
C      10.17      11.39      21.29
C       9.04      12.03      21.86
C       7.92      12.30      21.03
C       7.97      11.99      19.65
C       9.12      11.39      19.10
C       6.75      12.95      21.51
C       6.60      14.33      21.22
C       5.50      15.05      21.71
C       4.52      14.43      22.53
C       4.67      13.04      22.79
C       5.75      12.28      22.28
C       9.12      12.39      23.31
C       5.84      10.81      22.52
C      25.96      22.80       5.61
C      26.26      22.69       6.99
C      27.37      23.35       7.56
C      28.18      24.18       6.72
C      27.87      24.29       5.35
C      26.79      23.59       4.79
C     -13.58      24.87       7.20
C     -12.32      24.31       6.92
C     -11.14      24.90       7.41
C     -11.19      26.05       8.22
C     -12.46      26.62       8.48
C     -13.66      26.06       7.98
C      27.65      23.10       9.00
C     -14.98      26.73       8.21
C      -6.74      33.86      12.76
C      -6.50      34.07      14.14
C      -6.51      35.36      14.71
C      -6.83      36.48      13.88
C      -7.08      36.27      12.50
C      -7.02      34.98      11.95
C      14.60       0.66      14.36
C      15.71       1.47      14.07
C      15.79       2.78      14.56
C      14.76       3.32      15.38
C      13.64       2.50      15.64
C      13.52       1.18      15.13
C      -6.16      35.48      16.16
C      12.28       0.37      15.36
C      11.27      26.10      41.38
C      11.33      25.78      42.75
C      12.46      25.15       0.41
C      13.58      24.87      42.49
C      13.52      25.18      41.11
C      12.38      25.78      40.56
C      14.75      24.22       0.05
C      14.90      22.84      42.68
C      16.00      22.12       0.26
C      16.97      22.74       1.07
C      16.83      24.13       1.33
C      15.74      24.89       0.82
C      12.38      24.79       1.85
C      15.66      26.37       1.06
C      -4.46      14.38      27.07
C      -4.76      14.48      28.44
C      -5.88      13.82      29.02
C      -6.68      12.99      28.18
C      -6.38      12.88      26.81
C      -5.29      13.58      26.25
C      35.08      12.30      28.66
C      33.81      12.86      28.38
C      32.64      12.27      28.87
C      32.69      11.12      29.68
C      33.96      10.55      29.94
C      35.16      11.11      29.43
C      -6.15      14.07      30.46
C      36.48      10.44      29.67
O      27.55      11.41      40.81
O      20.93      13.06      39.65
O      17.59       7.62      26.51
O      22.33      12.52      25.34
O      19.28      18.14      12.20
O      21.16      11.59      11.03
O      -6.05      25.76      19.35
O       0.56      24.11      18.19
O       3.91      29.55       5.05
O      -0.83      24.65       3.88
O       2.21      19.03      33.66
O       0.33      25.58      32.49
O      10.26      36.18      37.59
O      26.31       2.15      37.82
O       4.78      10.21      23.28
O      10.18      13.33      23.51
O     -14.97      27.94       8.98
O      27.93      21.71       9.21
O      11.24       0.99      16.13
O      -4.82      35.03      16.36
O      16.72      26.96       1.83
O      11.32      23.85       2.05
O      36.47       9.23      30.43
O      -6.43      15.46      30.66
