158

Cd       9.74       8.80      11.73
Cd      10.65       3.83       3.82
Cd      12.37       5.74      12.07
Cd       8.70       6.95       4.25
Cd       7.78      11.91      12.16
Cd       6.07      10.00       3.91
H      13.76      10.62      10.44
H      16.10      11.59      10.44
H      16.95       9.50      14.07
H      13.79       9.65      15.63
H       9.78       3.39       0.98
H      14.36       4.77      14.91
H       9.95      10.68       7.23
H       5.28      12.39       7.24
H       6.18      11.18       9.23
H       5.24       1.04       6.77
H       5.70       2.22       5.50
H       4.09       2.32       6.27
H       2.74       1.87       4.05
H       4.36       2.25       3.41
H       3.55       0.72       2.94
H      10.87      10.62       2.30
H      11.81      12.96       2.04
H       9.75      14.15       5.60
H       3.82       5.77      10.70
H       5.43       6.28      11.34
H       4.79       4.65      11.70
H       5.45       5.87      14.08
H       5.42       7.52      13.41
H       4.23       7.03      14.67
H       4.68       5.12       5.53
H       2.34       4.15       5.54
H       1.49       6.24       1.91
H       4.64       6.09       0.35
H       8.66      12.36      15.00
H       4.07      10.97       1.07
H       8.49       5.06       8.75
H      13.16       3.36       8.74
H      12.25       4.56       6.74
H      13.19      14.70       9.21
H      12.73      13.52      10.48
H      14.34      13.43       9.71
H      15.69      13.87      11.92
H      14.07      13.49      12.56
H      14.89      15.02      13.04
H       7.56       5.12      13.68
H       6.63       2.78      13.93
H       8.69       1.59      10.38
H      14.62       9.97       5.28
H      13.01       9.46       4.64
H      13.64      11.09       4.28
H      12.98       9.87       1.89
H      13.02       8.22       2.57
H      14.20       8.71       1.31
C      12.68       8.94      12.15
C      14.09       9.46      12.21
C      14.48      10.37      11.21
C      15.76      10.92      11.22
C      16.64      10.61      12.26
C      16.24       9.72      13.27
C      14.98       9.10      13.24
C       5.18      11.20      12.28
C      14.59       8.13      14.31
C      13.95       8.58      15.46
C      10.03       5.47       0.45
C      10.16       4.09       0.24
C      14.24       5.84      15.07
C      14.76       6.74      14.13
C       9.41       6.02       1.70
C      15.37       6.19      12.89
C       8.67      10.07       9.49
C       8.11      10.85       8.33
C       8.93      11.08       7.22
C       8.47      11.81       6.13
C       7.14      12.27       6.14
C       6.31      12.02       7.24
C       6.80      11.33       8.35
C       6.56      12.94       4.93
C       4.88       1.63       5.92
C       3.70       1.44       3.75
C       9.35       9.69       4.26
C       9.76      11.11       4.07
C      10.62      11.42       3.00
C      11.14      12.70       2.86
C      10.83      13.68       3.82
C       9.94      13.38       4.86
C       9.38      12.11       4.98
C       9.35       1.48       3.78
C       4.51       5.70      11.54
C       4.79       6.70      13.79
C       5.75       6.81       3.83
C       4.35       6.28       3.77
C       3.95       5.37       4.76
C       2.68       4.82       4.75
C       1.80       5.14       3.71
C       2.19       6.03       2.71
C       3.45       6.64       2.73
C      13.25       4.54       3.70
C       3.85       7.61       1.67
C       4.49       7.16       0.51
C       8.40      10.27      15.53
C       8.27      11.65      15.74
C       4.19       9.90       0.90
C       3.68       9.00       1.84
C       9.02       9.72      14.28
C       3.06       9.55       3.09
C       9.77       5.67       6.49
C      10.32       4.90       7.64
C       9.50       4.66       8.75
C       9.97       3.93       9.85
C      11.30       3.47       9.84
C      12.13       3.72       8.73
C      11.63       4.41       7.63
C      11.88       2.80      11.04
C      13.56      14.11      10.06
C      14.73      14.30      12.23
C       9.08       6.05      11.72
C       8.68       4.63      11.91
C       7.82       4.32      12.98
C       7.30       3.04      13.12
C       7.60       2.06      12.16
C       8.49       2.36      11.12
C       9.06       3.63      10.99
C       9.09      14.26      12.20
C      13.92      10.04       4.44
C      13.64       9.04       2.18
N       3.88       6.24      12.74
N       4.32       0.75       4.88
N      14.56       9.50       3.23
N      14.11      14.99      11.09
O      14.64       5.66      11.99
O      12.40       7.83      12.74
O      11.84       9.65      11.53
O       9.16       2.29       4.75
O      10.12       1.74       2.79
O       9.68       9.34       9.32
O       8.07      10.17      10.64
O       9.18       7.25       1.80
O       9.15       5.19       2.66
O       5.50      12.01      11.35
O       5.99      10.84      13.20
O       8.11       9.38       4.50
O      10.24       8.81       4.19
O       6.09      12.24       3.97
O       3.80      10.08       3.99
O       6.04       7.91       3.24
O       6.59       6.09       4.44
O       9.27      13.46      11.22
O       8.32      14.00      13.18
O       8.76       6.40       6.65
O      10.37       5.58       5.34
O       9.25       8.49      14.18
O       9.29      10.55      13.32
O      12.93       3.73       4.63
O      12.45       4.90       2.77
O      10.32       6.37      11.47
O       8.19       6.93      11.78
O      12.35       3.50      12.00
