14

Cu      13.41       1.63       7.63
Cu      14.63       3.76       7.63
C      16.19       1.44       7.24
O      16.27       2.72       7.30
C      11.85       3.95       8.03
O      13.74       1.54       9.57
O      13.16       1.88       5.70
C      13.62       2.93       5.14
O      12.91       4.65       7.96
O      11.77       2.68       7.96
O      14.30       3.85       5.70
C      14.42       2.47      10.13
O      14.88       3.52       9.57
O      15.13       0.74       7.30
