14

C       2.50       1.44       7.24
Cu       5.29       1.64       7.63
C       5.08       2.93       5.14
Cu       4.06       3.76       7.63
O       3.81       3.52       9.57
C       6.84       3.95       8.03
O       3.57       0.74       7.30
O       5.53       1.88       5.70
O       5.78       4.65       7.96
O       4.39       3.85       5.70
O       6.92       2.68       7.96
O       4.95       1.54       9.57
C       4.27       2.47      10.13
O       2.43       2.72       7.30
