696

Zn      15.03      19.01      28.27
Zn       0.73       6.88       2.34
Zn       0.72      17.03      28.22
Zn      15.61       4.68       3.79
Zn       6.66      17.77      21.66
Zn       9.11       5.38      14.30
Zn       9.10      19.75      21.72
Zn       7.23       7.58      12.86
Zn      10.09      19.01       5.02
Zn       7.64       6.88      30.95
Zn       7.65      17.03       5.07
Zn       9.52       4.68      29.51
Zn       1.72      17.77      11.63
Zn      16.01       5.38      18.99
Zn      16.02      19.75      11.58
Zn       1.14       7.58      20.43
Zn       1.72       5.51       5.02
Zn      16.01      17.64      30.95
Zn      16.02       7.49       5.07
Zn       1.14      19.84      29.51
Zn      10.09       6.75      11.63
Zn       7.64      19.13      18.99
Zn       7.65       4.77      11.58
Zn       9.52      16.94      20.43
Zn       6.66       5.51      28.27
Zn       9.11      17.64       2.34
Zn       9.10       7.49      28.22
Zn       7.23      19.84       3.79
Zn      15.03       6.75      21.66
Zn       0.73      19.13      14.30
Zn       0.72       4.77      21.72
Zn      15.61      16.94      12.86
H      13.95       3.60       0.20
H      13.19       2.73      31.48
H      16.33       4.39      29.59
H       0.33       5.26      31.61
H      13.11       2.90      29.12
H      12.78       0.78      28.02
H      13.28      23.04      27.87
H      16.66      23.65      29.95
H      16.16       1.39      30.11
H      16.22       2.30      27.40
H      13.15       4.85      27.72
H      12.40      16.27      32.18
H      10.35      15.31      32.67
H       8.83      16.86      29.28
H      10.88      17.81      28.80
H       7.96      15.31      32.36
H       6.83      14.86      29.04
H       6.50      17.20      32.27
H       0.10       3.28      25.52
H      13.83       5.85      25.73
H       4.86      15.72      28.19
H       4.66      18.17      31.34
H       9.38      11.63      28.90
H       9.35      13.89      29.43
H       7.08      13.15      32.61
H       7.16      10.90      32.14
H       5.57       8.65      16.44
H       4.82       9.53      18.46
H       7.96       7.87      20.34
H       8.71       7.00      18.33
H       4.74       9.36      20.82
H       4.40      11.48      21.91
H       4.91      13.74      22.07
H       8.29      13.13      19.99
H       7.79      10.87      19.83
H       7.85       9.96      22.54
H       4.77       7.41      22.22
H       4.03      20.51      17.75
H       1.97      21.46      17.27
H       0.45      19.92      20.65
H       2.51      18.96      21.14
H      16.33      21.47      17.57
H      15.20      21.92      20.90
H      14.88      19.58      17.67
H       8.48       8.98      24.42
H       5.45       6.41      24.21
H      13.23      21.06      21.75
H      13.04      18.61      18.59
H       1.01       0.63      21.04
H       0.97      22.89      20.51
H      15.45      23.62      17.33
H      15.54       1.36      17.80
H      11.18       3.60      33.09
H      11.93       2.73       1.81
H       8.79       4.39       3.70
H       8.04       5.26       1.68
H      12.01       2.90       4.17
H      12.35       0.78       5.27
H      11.84      23.04       5.42
H       8.46      23.65       3.34
H       8.96       1.39       3.19
H       8.90       2.30       5.90
H      11.97       4.85       5.57
H      12.72      16.27       1.11
H      14.78      15.31       0.62
H      16.30      16.86       4.01
H      14.24      17.81       4.49
H       0.41      15.31       0.93
H       1.55      14.86       4.25
H       1.87      17.20       1.03
H       8.27       3.28       7.77
H      11.30       5.85       7.56
H       3.52      15.72       5.10
H       3.71      18.17       1.95
H      15.74      11.63       4.39
H      15.77      13.89       3.86
H       1.30      13.15       0.69
H       1.21      10.90       1.16
H       2.80       8.65      16.85
H       3.56       9.53      14.83
H       0.42       7.87      12.95
H      16.41       7.00      14.96
H       3.64       9.36      12.47
H       3.97      11.48      11.38
H       3.47      13.74      11.22
H       0.09      13.13      13.30
H       0.59      10.87      13.46
H       0.53       9.96      10.75
H       3.60       7.41      11.08
H       4.35      20.51      15.54
H       6.40      21.46      16.02
H       7.92      19.92      12.64
H       5.86      18.96      12.15
H       8.79      21.47      15.72
H       9.92      21.92      12.39
H      10.24      19.58      15.62
H      16.64       8.98       8.88
H       2.92       6.41       9.08
H      11.89      21.06      11.54
H      12.08      18.61      14.70
H       7.36       0.63      12.25
H       7.40      22.89      12.78
H       9.67      23.62      15.96
H       9.58       1.36      15.49
H       2.80      20.91      33.09
H       3.56      21.79       1.81
H       0.42      20.13       3.70
H      16.41      19.26       1.68
H       3.64      21.62       4.17
H       3.97      23.74       5.27
H       3.47       1.48       5.42
H       0.09       0.87       3.34
H       0.59      23.13       3.19
H       0.53      22.22       5.90
H       3.60      19.67       5.57
H       4.35       8.25       1.11
H       6.40       9.20       0.62
H       7.92       7.66       4.01
H       5.86       6.70       4.49
H       8.79       9.21       0.93
H       9.92       9.66       4.25
H      10.24       7.32       1.03
H      16.64      21.24       7.77
H       2.92      18.67       7.56
H      11.89       8.80       5.10
H      12.08       6.35       1.95
H       7.36      12.89       4.39
H       7.40      10.63       3.86
H       9.67      11.36       0.69
H       9.58      13.62       1.16
H      11.18      15.86      16.85
H      11.93      14.99      14.83
H       8.79      16.65      12.95
H       8.04      17.52      14.96
H      12.01      15.16      12.47
H      12.35      13.04      11.38
H      11.84      10.78      11.22
H       8.46      11.39      13.30
H       8.96      13.65      13.46
H       8.90      14.56      10.75
H      11.97      17.11      11.08
H      12.72       4.01      15.54
H      14.78       3.05      16.02
H      16.30       4.60      12.64
H      14.24       5.56      12.15
H       0.41       3.05      15.72
H       1.55       2.60      12.39
H       1.87       4.94      15.62
H       8.27      15.54       8.88
H      11.30      18.11       9.08
H       3.52       3.46      11.54
H       3.71       5.91      14.70
H      15.74      23.89      12.25
H      15.77       1.63      12.78
H       1.30       0.89      15.96
H       1.21      23.15      15.49
H       5.57      20.91       0.20
H       4.82      21.79      31.48
H       7.96      20.13      29.59
H       8.71      19.26      31.61
H       4.74      21.62      29.12
H       4.40      23.74      28.02
H       4.91       1.48      27.87
H       8.29       0.87      29.95
H       7.79      23.13      30.11
H       7.85      22.22      27.40
H       4.77      19.67      27.72
H       4.03       8.25      32.18
H       1.97       9.20      32.67
H       0.45       7.66      29.28
H       2.51       6.70      28.80
H      16.33       9.21      32.36
H      15.20       9.66      29.04
H      14.88       7.32      32.27
H       8.48      21.24      25.52
H       5.45      18.67      25.73
H      13.23       8.80      28.19
H      13.04       6.35      31.34
H       1.01      12.89      28.90
H       0.97      10.63      29.43
H      15.45      11.36      32.61
H      15.54      13.62      32.14
H      13.95      15.86      16.44
H      13.19      14.99      18.46
H      16.33      16.65      20.34
H       0.33      17.52      18.33
H      13.11      15.16      20.82
H      12.78      13.04      21.91
H      13.28      10.78      22.07
H      16.66      11.39      19.99
H      16.16      13.65      19.83
H      16.22      14.56      22.54
H      13.15      17.11      22.22
H      12.40       4.01      17.75
H      10.35       3.05      17.27
H       8.83       4.60      20.65
H      10.88       5.56      21.14
H       7.96       3.05      17.57
H       6.83       2.60      20.90
H       6.50       4.94      17.67
H       0.10      15.54      24.42
H      13.83      18.11      24.21
H       4.86       3.46      21.75
H       4.66       5.91      18.59
H       9.38      23.89      21.04
H       9.35       1.63      20.51
H       7.08       0.89      17.33
H       7.16      23.15      17.80
C      16.07       5.06       0.74
C      15.59       4.52      32.75
C      14.42       3.76      32.71
C      13.97       3.24      31.51
C      14.69       3.47      30.34
C      15.85       4.23      30.37
C      16.30       4.75      31.58
C      14.09       2.80      29.09
C      14.42       1.31      29.08
C      13.56       0.45      28.41
C      13.86      23.61      28.32
C      15.02      23.12      28.89
C      15.88      23.98      29.56
C      15.58       0.82      29.66
C      14.62       3.47      27.81
C      15.72       3.02      27.07
C      13.90       4.53      27.27
C      13.18      17.70      30.14
C      11.85      17.14      30.44
C      11.69      16.39      31.60
C      10.45      15.82      31.89
C       9.38      15.99      31.02
C       9.54      16.74      29.86
C      10.78      17.31      29.57
C       8.06      15.25      31.39
C       6.85      15.89      30.77
C       6.36      15.50      29.53
C       6.19      16.90      31.44
C      15.69       5.11      24.01
C      15.35       4.60      25.33
C      16.08       3.58      25.94
C      14.29       5.11      26.05
C       3.22      17.58      29.19
C       4.54      17.04      29.69
C       5.20      16.03      29.00
C       5.08      17.47      30.89
C      15.37      21.66      28.83
C       8.39       9.57      30.25
C       8.29      11.02      30.49
C       8.93      11.93      29.66
C       8.88      13.29      29.96
C       8.18      13.76      31.03
C       7.54      12.85      31.86
C       7.60      11.50      31.58
C       7.70       7.20      15.90
C       7.22       7.74      17.19
C       6.05       8.50      17.22
C       5.60       9.02      18.43
C       6.31       8.78      19.60
C       7.48       8.03      19.56
C       7.93       7.51      18.36
C       5.71       9.46      20.84
C       6.04      10.95      20.86
C       5.18      11.81      21.53
C       5.48      13.16      21.62
C       6.65      13.66      21.04
C       7.51      12.80      20.37
C       7.21      11.44      20.28
C       6.25       8.79      22.13
C       7.35       9.24      22.86
C       5.52       7.73      22.66
C       4.80      19.08      19.80
C       3.47      19.64      19.49
C       3.31      20.39      18.34
C       2.08      20.96      18.04
C       1.01      20.79      18.91
C       1.17      20.04      20.07
C       2.40      19.46      20.36
C      16.44      21.52      18.55
C      15.22      20.88      19.16
C      14.73      21.28      20.41
C      14.56      19.87      18.50
C       7.32       7.15      25.93
C       6.98       7.66      24.61
C       7.70       8.68      24.00
C       5.91       7.15      23.88
C      11.60      19.19      20.74
C      12.91      19.73      20.25
C      13.57      20.74      20.94
C      13.45      19.31      19.04
C       7.00      15.12      21.11
C       0.01       2.69      19.69
C      16.66       1.24      19.45
C       0.55       0.33      20.28
C       0.51      23.49      19.97
C      16.55      23.02      18.91
C      15.92      23.92      18.08
C      15.97       0.76      18.36
C       9.05       5.06      32.55
C       9.53       4.52       0.54
C      10.70       3.76       0.58
C      11.15       3.24       1.79
C      10.44       3.47       2.95
C       9.27       4.23       2.92
C       8.82       4.75       1.71
C      11.04       2.80       4.20
C      10.70       1.31       4.21
C      11.57       0.45       4.88
C      11.27      23.61       4.97
C      10.10      23.12       4.40
C       9.24      23.98       3.73
C       9.54       0.82       3.63
C      10.50       3.47       5.49
C       9.40       3.02       6.22
C      11.23       4.53       6.02
C      11.95      17.70       3.16
C      13.28      17.14       2.85
C      13.44      16.39       1.69
C      14.67      15.82       1.40
C      15.74      15.99       2.27
C      15.58      16.74       3.43
C      14.35      17.31       3.72
C       0.31      15.25       1.90
C       1.52      15.89       2.52
C       2.01      15.50       3.76
C       2.19      16.90       1.85
C       9.43       5.11       9.28
C       9.77       4.60       7.96
C       9.05       3.58       7.35
C      10.83       5.11       7.24
C       5.15      17.58       4.10
C       3.84      17.04       3.60
C       3.18      16.03       4.29
C       3.30      17.47       2.40
C       9.75      21.66       4.46
C      16.74       9.57       3.04
C       0.09      11.02       2.80
C      16.19      11.93       3.64
C      16.24      13.29       3.33
C       0.19      13.76       2.26
C       0.83      12.85       1.43
C       0.77      11.50       1.71
C       0.68       7.20      17.39
C       1.16       7.74      16.10
C       2.32       8.50      16.07
C       2.78       9.02      14.86
C       2.06       8.78      13.69
C       0.90       8.03      13.73
C       0.45       7.51      14.93
C       2.66       9.46      12.45
C       2.33      10.95      12.44
C       3.19      11.81      11.77
C       2.89      13.16      11.67
C       1.73      13.66      12.25
C       0.86      12.80      12.92
C       1.17      11.44      13.01
C       2.13       8.79      11.16
C       1.02       9.24      10.43
C       2.85       7.73      10.63
C       3.57      19.08      13.49
C       4.90      19.64      13.80
C       5.06      20.39      14.96
C       6.30      20.96      15.25
C       7.37      20.79      14.38
C       7.20      20.04      13.22
C       5.97      19.46      12.93
C       8.68      21.52      14.74
C       9.90      20.88      14.13
C      10.39      21.28      12.88
C      10.56      19.87      14.80
C       1.06       7.15       7.36
C       1.40       7.66       8.68
C       0.67       8.68       9.29
C       2.46       7.15       9.41
C      13.52      19.19      12.55
C      12.21      19.73      13.05
C      11.55      20.74      12.35
C      11.67      19.31      14.25
C       1.37      15.12      12.18
C       8.36       2.69      13.61
C       8.46       1.24      13.84
C       7.82       0.33      13.01
C       7.86      23.49      13.32
C       8.57      23.02      14.38
C       9.20      23.92      15.21
C       9.15       0.76      14.93
C       0.68      19.45      32.55
C       1.16      20.00       0.54
C       2.32      20.76       0.58
C       2.78      21.28       1.79
C       2.06      21.04       2.95
C       0.90      20.29       2.92
C       0.45      19.76       1.71
C       2.66      21.72       4.20
C       2.33      23.21       4.21
C       3.19      24.07       4.88
C       2.89       0.90       4.97
C       1.73       1.40       4.40
C       0.86       0.54       3.73
C       1.17      23.70       3.63
C       2.13      21.05       5.49
C       1.02      21.50       6.22
C       2.85      19.99       6.02
C       3.57       6.82       3.16
C       4.90       7.38       2.85
C       5.06       8.13       1.69
C       6.30       8.70       1.40
C       7.37       8.53       2.27
C       7.20       7.78       3.43
C       5.97       7.20       3.72
C       8.68       9.26       1.90
C       9.90       8.62       2.52
C      10.39       9.02       3.76
C      10.56       7.61       1.85
C       1.06      19.41       9.28
C       1.40      19.92       7.96
C       0.67      20.94       7.35
C       2.46      19.41       7.24
C      13.52       6.93       4.10
C      12.21       7.48       3.60
C      11.55       8.49       4.29
C      11.67       7.05       2.40
C       1.37       2.86       4.46
C       8.36      14.95       3.04
C       8.46      13.50       2.80
C       7.82      12.59       3.64
C       7.86      11.23       3.33
C       8.57      10.76       2.26
C       9.20      11.67       1.43
C       9.15      13.02       1.71
C       9.05      17.32      17.39
C       9.53      16.78      16.10
C      10.70      16.02      16.07
C      11.15      15.50      14.86
C      10.44      15.73      13.69
C       9.27      16.49      13.73
C       8.82      17.01      14.93
C      11.04      15.06      12.45
C      10.70      13.57      12.44
C      11.57      12.71      11.77
C      11.27      11.36      11.67
C      10.10      10.86      12.25
C       9.24      11.72      12.92
C       9.54      13.08      13.01
C      10.50      15.73      11.16
C       9.40      15.28      10.43
C      11.23      16.79      10.63
C      11.95       5.44      13.49
C      13.28       4.88      13.80
C      13.44       4.13      14.96
C      14.67       3.56      15.25
C      15.74       3.73      14.38
C      15.58       4.48      13.22
C      14.35       5.05      12.93
C       0.31       3.00      14.74
C       1.52       3.63      14.13
C       2.01       3.24      12.88
C       2.19       4.65      14.80
C       9.43      17.37       7.36
C       9.77      16.86       8.68
C       9.05      15.84       9.29
C      10.83      17.37       9.41
C       5.15       5.33      12.55
C       3.84       4.78      13.05
C       3.18       3.77      12.35
C       3.30       5.21      14.25
C       9.75       9.40      12.18
C      16.74      21.83      13.61
C       0.09      23.28      13.84
C      16.19      24.19      13.01
C      16.24       1.03      13.32
C       0.19       1.50      14.38
C       0.83       0.59      15.21
C       0.77      23.76      14.93
C       7.70      19.45       0.74
C       7.22      20.00      32.75
C       6.05      20.76      32.71
C       5.60      21.28      31.51
C       6.31      21.04      30.34
C       7.48      20.29      30.37
C       7.93      19.76      31.58
C       5.71      21.72      29.09
C       6.04      23.21      29.08
C       5.18      24.07      28.41
C       5.48       0.90      28.32
C       6.65       1.40      28.89
C       7.51       0.54      29.56
C       7.21      23.70      29.66
C       6.25      21.05      27.81
C       7.35      21.50      27.07
C       5.52      19.99      27.27
C       4.80       6.82      30.14
C       3.47       7.38      30.44
C       3.31       8.13      31.60
C       2.08       8.70      31.89
C       1.01       8.53      31.02
C       1.17       7.78      29.86
C       2.40       7.20      29.57
C      16.44       9.26      31.39
C      15.22       8.62      30.77
C      14.73       9.02      29.53
C      14.56       7.61      31.44
C       7.32      19.41      24.01
C       6.98      19.92      25.33
C       7.70      20.94      25.94
C       5.91      19.41      26.05
C      11.60       6.93      29.19
C      12.91       7.48      29.69
C      13.57       8.49      29.00
C      13.45       7.05      30.89
C       7.00       2.86      28.83
C       0.01      14.95      30.25
C      16.66      13.50      30.49
C       0.55      12.59      29.66
C       0.51      11.23      29.96
C      16.55      10.76      31.03
C      15.92      11.67      31.86
C      15.97      13.02      31.58
C      16.07      17.32      15.90
C      15.59      16.78      17.19
C      14.42      16.02      17.22
C      13.97      15.50      18.43
C      14.69      15.73      19.60
C      15.85      16.49      19.56
C      16.30      17.01      18.36
C      14.09      15.06      20.84
C      14.42      13.57      20.86
C      13.56      12.71      21.53
C      13.86      11.36      21.62
C      15.02      10.86      21.04
C      15.88      11.72      20.37
C      15.58      13.08      20.28
C      14.62      15.73      22.13
C      15.72      15.28      22.86
C      13.90      16.79      22.66
C      13.18       5.44      19.80
C      11.85       4.88      19.49
C      11.69       4.13      18.34
C      10.45       3.56      18.04
C       9.38       3.73      18.91
C       9.54       4.48      20.07
C      10.78       5.05      20.36
C       8.06       3.00      18.55
C       6.85       3.63      19.16
C       6.36       3.24      20.41
C       6.19       4.65      18.50
C      15.69      17.37      25.93
C      15.35      16.86      24.61
C      16.08      15.84      24.00
C      14.29      17.37      23.88
C       3.22       5.33      20.74
C       4.54       4.78      20.25
C       5.20       3.77      20.94
C       5.08       5.21      19.04
C      15.37       9.40      21.11
C       8.39      21.83      19.69
C       8.29      23.28      19.45
C       8.93      24.19      20.28
C       8.88       1.03      19.97
C       8.18       1.50      18.91
C       7.54       0.59      18.08
C       7.60      23.76      18.36
O      14.61      20.90      28.17
O      15.60       4.50       1.78
O       0.12       6.01       0.73
O       8.69       9.26      29.04
O       8.06       8.79      31.15
O      14.07      17.60      31.01
O      13.37      18.24      29.02
O      15.00       6.02      23.49
O      16.70       4.59      23.48
O       2.83      18.65      29.73
O       2.65      16.96      28.29
O      16.55      18.38      29.27
O      16.31      21.27      29.47
O       6.24      15.88      21.76
O       7.22       7.76      14.87
O       8.49       6.25      15.91
O       0.31       3.00      20.89
O      16.43       3.47      18.79
O       5.70      19.18      18.93
O       4.99      18.54      20.92
O       6.63       6.24      26.44
O       8.33       7.67      26.46
O      11.20      18.13      20.21
O      11.02      19.82      21.65
O       8.18      18.40      20.67
O       7.94      15.51      20.46
O      10.51      20.90       5.12
O       9.52       4.50      31.51
O       8.26       6.01      32.56
O      16.43       9.26       4.25
O       0.32       8.79       2.14
O      11.05      17.60       2.29
O      11.76      18.24       4.27
O      10.12       6.02       9.80
O       8.42       4.59       9.81
O       5.55      18.65       3.56
O       5.72      16.96       5.00
O       8.57      18.38       4.02
O       8.81      21.27       3.82
O       2.13      15.88      11.53
O       1.15       7.76      18.42
O      16.63       6.25      17.38
O       8.06       3.00      12.40
O       8.69       3.47      14.50
O       2.68      19.18      14.36
O       3.38      18.54      12.37
O       1.75       6.24       6.85
O       0.05       7.67       6.83
O      13.92      18.13      13.08
O      14.10      19.82      11.64
O       0.19      18.40      12.62
O       0.44      15.51      12.83
O       2.13       3.62       5.12
O       1.15      20.02      31.51
O      16.63      18.51      32.56
O       8.06      15.26       4.25
O       8.69      15.73       2.14
O       2.68       6.92       2.29
O       3.38       6.28       4.27
O       1.75      18.50       9.80
O       0.05      19.93       9.81
O      13.92       5.87       3.56
O      14.10       7.56       5.00
O       0.19       6.14       4.02
O       0.44       3.25       3.82
O      10.51       8.64      11.53
O       9.52      16.76      18.42
O       8.26      18.27      17.38
O      16.43      21.52      12.40
O       0.32      21.05      14.50
O      11.05       5.34      14.36
O      11.76       5.98      12.37
O      10.12      18.28       6.85
O       8.42      16.85       6.83
O       5.55       6.39      13.08
O       5.72       4.70      11.64
O       8.57       6.12      12.62
O       8.81       9.01      12.83
O       6.24       3.62      28.17
O       7.22      20.02       1.78
O       8.49      18.51       0.73
O       0.31      15.26      29.04
O      16.43      15.73      31.15
O       5.70       6.92      31.01
O       4.99       6.28      29.02
O       6.63      18.50      23.49
O       8.33      19.93      23.48
O      11.20       5.87      29.73
O      11.02       7.56      28.29
O       8.18       6.14      29.27
O       7.94       3.25      29.47
O      14.61       8.64      21.76
O      15.60      16.76      14.87
O       0.12      18.27      15.91
O       8.69      21.52      20.89
O       8.06      21.05      18.79
O      14.07       5.34      18.93
O      13.37       5.98      20.92
O      15.00      18.28      26.44
O      16.70      16.85      26.46
O       2.83       6.39      20.21
O       2.65       4.70      21.65
O      16.55       6.12      20.67
O      16.31       9.01      20.46
