21

O      -1.41       5.80       4.61
O      -1.73       3.62       4.49
Mg      -2.03       4.59       6.35
O      -0.16       4.34       7.02
O       0.85       6.30       6.62
Mg      -0.15       7.40       5.16
O      -1.09       8.68       3.80
O       1.03       9.06       5.70
O       1.19       6.76       3.70
Mg       2.01      10.00       3.97
O       0.43       9.91       2.70
O       3.03       9.99       5.83
O       2.79       8.28       3.29
C      -1.50       4.73       3.94
C      -2.30       7.38       7.42
C       0.71       5.22       7.23
C       2.03       9.45       6.38
C      -0.73       9.47       2.90
C       2.19       7.20       3.09
O      -2.39       6.13       7.61
O      -1.64       7.94       6.52
