68

O      17.98      21.69       8.90
O      17.92      19.80      10.13
O      21.31      17.95      11.06
O      18.86      16.37       8.56
O      18.32      16.93      10.66
O      23.46      22.21       8.36
O      23.24      19.06      10.66
Gd      21.53      14.86       5.18
Gd      21.36      17.22       2.27
Gd      20.64      18.61       5.65
Gd      18.09      16.12       3.91
Gd      19.85      21.71       7.66
Gd      19.70      18.41       9.45
Gd      23.03      19.85       8.43
O      24.73      18.15       8.12
O      24.04      19.27       6.32
C      23.70      14.90       2.51
C      23.62      14.18       8.80
C      15.70      18.30       6.78
C      23.06      14.59       7.50
C      16.50      17.50       5.79
C      22.65      20.11       3.13
C      18.46      17.65       0.78
C      18.68      12.97       5.62
C      18.68      21.48       4.70
C      16.71      14.35       2.23
C      22.75      23.20       7.95
C      17.46      20.94       9.81
C      22.52      18.24      11.35
O      19.95      13.26       6.13
C      25.49      17.41       5.95
C      17.74      14.74       9.95
H      23.11      17.34       4.61
H      19.33      16.19       6.67
H      20.02      14.59       2.65
H      19.18      18.82       3.42
H      18.19      19.38       7.13
H      22.04      20.86       5.86
C      24.72      18.31       6.85
H      16.17      13.67       1.54
C      18.32      16.08       9.70
H      21.92      17.20       7.94
H      21.02      20.92      10.27
O      22.16      17.13       4.54
O      19.74      16.41       5.80
O      20.30      15.34       3.21
O      23.30      14.47       3.63
O      22.36      15.67       7.37
O      23.23      13.82       6.50
O      20.76      12.71       4.96
O      19.67      18.00       3.61
O      19.74      17.42       0.72
O      23.18      15.91       1.90
O      22.56      19.18       2.24
O      19.13      19.40       7.38
O      21.60      20.61       6.71
O      21.54      18.12       7.95
O      19.13      20.30       4.67
O      22.02      20.09       4.22
O      16.04      15.09       3.02
O      17.98      14.35       2.18
O      17.71      17.27       1.72
O      16.71      16.26       5.99
O      16.97      18.10       4.75
O      18.05      13.82       5.00
O      20.89      20.50       9.41
O      21.47      23.26       8.10
O      18.92      22.29       5.68
