116

Cd       3.94       1.51      19.83
Cd       4.05      12.75       1.41
Cd       4.01       8.65      12.03
Cd       3.85       5.56       9.23
H       1.50       3.17      20.86
H       1.59      13.84      18.82
H       1.56      10.96       0.50
H       1.38       0.45       2.26
H       6.53      10.35      10.95
H       6.46       6.76      13.02
H       6.33       3.85      10.29
H       6.32       7.44       8.20
H       6.52      10.93       0.58
H       6.34       0.46       2.23
H       6.46       3.22      20.90
H       6.56      13.89      18.83
H       1.37       3.83      10.24
H       1.35       7.46       8.24
H       1.57      10.34      11.02
H       1.49       6.73      13.06
H       3.09       2.60      12.75
H       4.35       6.32      14.51
H       4.30       5.26      16.77
H       4.72      11.61       8.48
H       3.36       7.91       6.72
H       3.43       8.96       4.47
H       3.24       9.67      19.10
H       4.43      13.45      17.39
H       4.39      12.43      15.12
H       3.07       4.55       2.16
H       4.42       0.80       3.83
H       4.39       1.81       6.10
C       0.89       2.38      20.42
C       0.85       0.37      19.29
C       0.98      11.80       0.89
C       0.98      13.89       1.86
C       7.10       9.55      11.42
C       7.06       7.55      12.57
C       6.91       4.65       9.83
C       6.90       6.65       8.68
C       7.10      11.79       0.92
C       7.11      13.90       1.86
C       7.02       2.40      20.44
C       6.97       0.40      19.30
C       0.78       4.64       9.81
C       0.77       6.66       8.68
C       0.97       9.54      11.45
C       0.93       7.53      12.58
C       3.65       3.35      16.05
C       3.25       2.64      14.90
C       3.35       3.18      13.63
C       3.77       4.51      13.48
C       4.08       5.28      14.62
C       4.04       4.69      15.89
C       3.77       2.69      17.39
C       3.90       5.07      12.10
C       4.17      10.85       5.18
C       4.55      11.56       6.33
C       4.45      11.02       7.60
C       4.01       9.70       7.75
C       3.67       8.95       6.61
C       3.73       9.53       5.35
C       4.12      11.49       3.82
C       3.90       9.12       9.12
C       3.76      10.50      15.81
C       3.40       9.76      16.95
C       3.49      10.28      18.23
C       3.88      11.62      18.40
C       4.17      12.40      17.28
C       4.14      11.83      16.00
C       3.85       9.87      14.44
C       3.97      12.17      19.79
C       3.66       3.73       5.44
C       3.25       4.45       4.30
C       3.35       3.94       3.02
C       3.79       2.62       2.83
C       4.13       1.85       3.95
C       4.09       2.41       5.24
C       3.75       4.34       6.81
C       3.90       2.09       1.43
N       1.56       1.35      19.87
N       1.67      12.86       1.34
N       6.39       8.54      11.96
N       6.22       5.66       9.28
N       6.42      12.85       1.38
N       6.31       1.40      19.89
N       1.46       5.66       9.26
N       1.64       8.51      12.00
N       2.64       1.31      15.02
N       5.16      12.90       6.22
N       2.79       8.42      16.82
N       2.61       5.77       4.44
O       4.10       1.46      17.41
O       3.58       3.40      18.43
O       1.68       1.20      15.80
O       4.69      13.79       6.94
O       3.24       7.51      17.53
O       2.97       6.67       3.66
O       3.85      12.75       3.77
O       4.31      10.77       2.80
O       6.14      13.01       5.46
O       3.09       0.41      14.29
O       4.09       5.58       6.88
O       3.53       3.61       7.82
O       1.70       5.88       5.28
O       4.14       8.63      14.37
O       3.68      10.61      13.43
O       1.83       8.33      16.05
O       4.17       6.31      11.93
O       3.73       4.26      11.13
O       3.53       7.91       9.26
O       4.16       9.89      10.11
O       4.13      13.42      19.97
O       3.89      11.35      20.77
O       4.10       0.85       1.22
O       3.80       2.93       0.48
