20

O       5.82      -0.61       8.65
O       8.28       2.69       2.53
O       5.01       1.51       8.66
O       8.47       0.44       2.28
O       5.74       3.13       6.87
O       8.00      -1.09       4.17
O       6.94      -1.52       6.57
O       6.95       3.59       4.54
H       5.33       2.74       7.72
H       8.30      -0.68       3.27
H       6.52      -1.45       7.50
H       7.45       3.58       3.66
C       8.13       1.50       2.94
C       6.32       0.80       6.82
C       7.49      -0.04       4.81
C       6.91      -0.27       6.11
C       6.95       2.35       4.99
C       5.68       0.55       8.13
C       6.31       2.10       6.27
C       7.51       1.27       4.27
