20

H       3.50      11.22      11.61
H       0.52      14.65      16.06
H       2.31      15.42      11.83
H       1.37      10.39      15.67
C       0.70      12.47      16.39
C       2.50      13.17      12.51
C       1.34      14.00      14.52
C       1.92      14.24      13.22
C       1.88      11.62      14.34
C       3.15      13.41      11.20
C       2.51      11.86      13.06
C       1.32      12.70      15.06
O       3.00      14.58      10.68
O       0.55      11.27      16.80
O       3.81      12.46      10.67
O       0.36      13.52      17.05
O       3.08      10.83      12.46
O       0.82      15.05      15.16
O       1.88      15.48      12.76
O       1.88      10.37      14.79
