20

O       1.34      13.00       2.80
O       3.61      17.23       5.47
O       2.55      17.65       3.07
O       2.61      12.54       5.09
H       0.92      13.39       1.95
H       3.91      16.83       6.37
H       2.10      17.59       2.15
H       3.11      12.57       5.97
C       3.74      14.65       6.71
C       1.92      15.34       2.83
C       3.10      16.18       4.83
C       2.51      16.41       3.54
C       2.58      13.79       4.65
C       1.28      15.58       1.52
C       1.92      14.03       3.39
C       3.13      14.87       5.38
O       1.42      16.75       1.00
O       3.89      13.45       7.12
O       0.62      14.62       0.99
O       4.08      15.70       7.37
