20

H       7.91       0.58      17.38
H       4.91      -2.87      12.96
H       6.72      -3.63      17.18
H       5.71       1.40      13.36
C       5.08      -0.68      12.62
C       6.90      -1.37      16.50
C       5.73      -2.21      14.50
C       6.31      -2.44      15.79
C       6.25       0.17      14.68
C       7.55      -1.61      17.81
C       6.90      -0.07      15.94
C       5.69      -0.91      13.96
O       7.41      -2.78      18.33
O       4.94       0.52      12.21
O       8.21      -0.66      18.34
O       4.74      -1.73      11.96
O       7.48       0.96      16.53
O       5.22      -3.26      13.86
O       6.28      -3.69      16.26
O       6.22       1.42      14.24
