18

C       4.71       8.37       9.25
C       3.33       6.24       9.12
H       6.57       9.24      10.38
C       3.83       4.18      10.40
O       2.80       3.64       9.81
O       4.57       3.47      11.15
O       5.95       5.86      11.58
O       6.03      10.33       9.52
O       4.26      10.50       8.18
O       6.53       8.29      10.80
H       2.25       4.72       8.95
O       2.88       8.10       7.75
C       5.23       6.31      10.69
O       2.29       5.68       8.54
C       3.60       7.66       8.64
C       4.11       5.59      10.08
C       5.50       7.73      10.21
C       4.99       9.78       8.93
