13

S       3.78       9.61      12.38
H       6.54       7.32      11.76
H       6.84       8.59      14.07
O       3.61      10.97      15.05
O       5.79      10.78      15.53
O       3.00       8.24       9.88
O       4.99       7.24       9.47
C       4.77      10.49      14.81
C       4.96       9.61      13.65
C       6.01       8.74      13.39
C       5.86       8.07      12.15
C       4.70       8.45      11.48
C       4.19       7.94      10.19
