178

C      15.68       1.86      28.64
C       0.79       2.40      29.13
C       0.80       3.21      30.28
C      15.69       3.55      30.96
C      14.51       2.88      30.53
C      14.49       2.08      29.37
C      15.64       4.51       0.24
C      15.46       3.51       1.38
C      14.24       3.33       2.10
C      14.17       2.50       3.24
C      15.28       1.74       3.64
C       0.37       1.79       2.87
C       0.44       2.64       1.75
C       0.79       5.40       0.38
C      14.54       5.58       0.16
C      14.21       6.35       1.32
C      13.13       7.26       1.32
C      12.39       7.48       0.15
C      12.80       6.82      30.89
C      13.88       5.92      30.90
C       1.26       6.17      31.21
C       2.41       6.96      31.30
C       3.11       7.08       0.58
C       2.62       6.40       1.71
C       1.46       5.60       1.61
C       1.79      15.36      12.61
C       2.54      14.28      13.10
C       3.33      14.41      14.25
C       3.48      15.66      14.92
C       2.63       0.62      14.48
C       1.82       0.49      13.33
C       4.43      15.87      16.10
C       3.44      15.92      17.26
C       3.07       1.04      17.92
C       2.23       1.04      19.05
C       1.68      15.93      19.54
C       1.92      14.74      18.82
C       2.76      14.75      17.69
C       5.50      14.79      16.24
C       5.32       1.02      15.98
C       6.07       1.47      17.11
C       6.89       2.61      17.05
C       7.04       3.32      15.84
C       6.38       2.84      14.69
C       5.57       1.70      14.75
C       6.32      14.43      15.13
C       7.22      13.35      15.19
C       7.40      12.65      16.39
C       6.72      13.09      17.55
C       5.82      14.16      17.48
C      15.71      15.83       6.61
C       0.67      15.04       7.14
C       0.86      14.93       8.55
C      16.08      15.62       9.46
C      14.99       0.24       8.90
C      14.81       0.34       7.51
C       2.79      13.56       8.17
C       2.60      13.65       6.78
C       3.10      11.76       5.51
C      15.64       0.02       5.24
C       0.22      15.74      10.84
C       0.02      15.56      22.74
C      14.92      15.05      23.33
C      14.52      15.46      24.63
C      15.30       0.30      25.37
C       0.40       0.79      24.78
C       0.80       0.38      23.50
C      12.58      14.07      24.46
C      12.99      13.64      23.18
C      12.67      11.43      22.50
C       0.46      15.16      21.48
C      14.89       0.77      26.62
C       9.19       8.86       0.79
C       8.47       9.93       0.20
C       7.09       9.79      31.90
C       6.37       8.63       0.33
C       7.10       7.59       0.96
C       8.48       7.70       1.19
C       7.09      11.99      30.94
C       8.47      12.11      31.19
C       9.42      14.12      31.90
C      10.56       8.84       0.92
C       5.05       8.40      31.93
C       8.63       6.48      16.29
C       9.83       7.13      15.90
C       9.86       8.55      15.73
C       8.69       9.32      15.96
C       7.51       8.65      16.37
C       7.49       7.27      16.54
C      12.16       8.41      15.09
C      12.14       7.02      15.28
C      13.98       5.93      16.21
C       8.52       5.11      16.42
C       8.64      10.68      15.70
H      12.84       7.67       2.21
H      14.69       6.18       2.20
H      12.27       6.95      30.03
H      14.13       5.48      30.01
H       0.78       6.11      30.31
H       2.76       7.42      30.45
H       3.12       6.45       2.60
H       1.14       5.15       2.47
H       1.33       2.69       1.25
H       1.20       1.28       3.16
H      13.30       2.49       3.79
H      13.40       3.85       1.84
H      13.63       3.03      31.02
H       1.71       3.56      30.59
H       1.67       2.24      28.63
H      13.61       1.69      29.06
H       7.32       2.96      17.91
H       5.96       1.01      18.01
H       6.46       3.35      13.80
H       5.14       1.38      13.88
H       6.17      14.88      14.22
H       7.66      13.03      14.32
H       6.82      12.58      18.43
H       5.35      14.43      18.34
H       2.94      13.85      17.22
H       1.54      13.85      19.15
H       2.06       1.92      19.54
H       3.43       1.94      17.61
H       2.66       1.53      14.94
H       3.83      13.58      14.57
H       2.54      13.38      12.59
H       1.32       1.31      12.98
H       3.57      13.03       8.56
H      14.03       0.92       7.17
H      14.35       0.76       9.51
H       3.85      11.39       4.80
H       2.13      11.75       5.01
H       3.08      11.08       6.37
H      16.03      15.47       4.59
H      15.70       0.20      11.39
H      11.72      13.72      24.88
H       1.67       0.76      23.13
H       0.99       1.47      25.27
H      12.00      10.82      21.89
H      12.65      11.04      23.52
H      13.68      11.33      22.10
H       0.35      14.21      21.21
H      13.92       0.81      26.84
H       6.57      12.74      30.50
H       8.97       6.90       1.61
H       6.66       6.70       1.21
H       9.96      14.98      31.51
H      10.03      13.66       0.73
H       8.47      14.49       0.43
H      10.98       9.21       1.74
H       4.70       8.79      31.09
H      13.01       8.89      14.78
H       6.60       6.83      16.83
H       6.64       9.17      16.52
H      14.85       5.33      15.92
H      13.38       5.34      16.91
H      14.35       6.83      16.71
H       9.05       4.64      17.12
H       9.00      11.04      14.84
N      11.18       8.01       0.16
N       4.32       7.61       0.68
N      15.74       1.26      27.46
N      15.26       1.18       4.84
N       7.57       4.53      15.79
N       7.89      11.42      16.44
N       1.28      15.27      11.39
N       1.07      15.99      20.72
N       1.92      14.19       8.98
N       1.57      14.41       6.33
N      13.36      14.95      25.13
N      14.13      14.16      22.66
N       6.46      10.84      31.31
N       9.12      11.06      31.76
N      11.03       9.12      15.32
N      10.97       6.43      15.66
O       3.48      13.09       5.90
O      12.22      12.79      22.44
O       9.16      13.22      30.81
O      13.24       6.25      15.02
