184

Cu       4.69       8.24      15.84
Cu      10.92       7.64       0.04
Cu       1.58       7.90      15.58
Cu       7.80       7.98       0.30
Cu       4.66      15.58       7.90
Cu      10.88       0.30       7.98
Cu       7.77       0.04       7.64
Cu       1.54      15.84       8.24
H       9.40       9.43       2.81
H       9.47       9.88       1.11
H       2.97      11.25       4.50
H       3.08      10.20       0.84
H       2.98       9.52       2.43
H      10.83      11.43       2.56
H       9.56      12.30       1.71
H       1.66      11.58       2.42
H       2.98      12.52       1.71
H       3.17       6.44      13.06
H       3.24       5.99      14.76
H       9.20       4.63      11.38
H       9.31       5.68      15.04
H       9.21       6.36      13.44
H       4.60       4.45      13.31
H       3.33       3.58      14.17
H       7.89       4.30      13.45
H       9.21       3.36      14.16
H       6.28      10.75      14.38
H       6.35       9.05      13.93
H      12.32      12.43      12.57
H      12.43       8.78      13.62
H      12.33      10.37      14.29
H       7.72      10.50      12.39
H       6.44       9.65      11.52
H      11.01      10.36      12.24
H      12.33       9.65      11.30
H       0.05       5.13       1.49
H       0.12       6.82       1.94
H       6.09       3.44       3.31
H       6.20       7.10       2.26
H       6.09       5.50       1.58
H       1.49       5.38       3.49
H       0.21       6.23       4.36
H       4.78       5.52       3.64
H       6.10       6.22       4.58
H      12.41      14.38      10.75
H      12.34      13.93       9.05
H       6.37      12.57      12.43
H       6.26      13.62       8.78
H       6.37      14.29      10.37
H      10.97      12.39      10.50
H      12.25      11.52       9.65
H       7.69      12.24      10.36
H       6.36      11.30       9.65
H       6.18       1.49       5.13
H       6.11       1.94       6.82
H       0.14       3.31       3.44
H       0.03       2.26       7.10
H       0.14       1.58       5.50
H       4.74       3.49       5.38
H       6.02       4.36       6.23
H       1.45       3.64       5.52
H       0.13       4.58       6.22
H       3.06      13.07       6.44
H       2.99      14.76       5.99
H       9.49      11.38       4.63
H       9.38      15.04       5.68
H       9.48      13.44       6.36
H       1.63      13.31       4.45
H       2.90      14.17       3.58
H      10.80      13.45       4.30
H       9.48      14.16       3.36
H       9.29       2.81       9.43
H       9.22       1.11       9.88
H       3.26       4.50      11.25
H       3.15       0.84      10.20
H       3.25       2.43       9.52
H       7.86       2.56      11.43
H       9.13       1.71      12.30
H       4.57       2.42      11.58
H       3.25       1.72      12.52
C       4.87      10.38       1.99
C       5.52      11.25       2.92
C       4.79      12.08       3.79
C       6.95      11.23       2.94
C       7.61      10.31       2.08
C       9.11      10.22       2.10
C       3.28      12.05       3.80
C       3.37      10.39       1.88
C       9.74      11.55       2.50
C       2.75      11.69       2.40
C      11.10       5.50      13.89
C      11.75       4.63      12.96
C      11.02       3.80      12.09
C       0.72       4.64      12.94
C       1.38       5.57      13.80
C       2.88       5.66      13.78
C       9.51       3.83      12.08
C       9.60       5.49      13.99
C       3.51       4.32      13.38
C       8.98       4.19      13.47
C       1.75       9.93      13.44
C       2.40      10.86      12.57
C       1.67      11.73      11.74
C       3.84      10.88      12.58
C       4.50      10.01      13.51
C       5.99      10.03      13.59
C       0.16      11.74      11.76
C       0.26       9.82      13.42
C       6.63      10.43      12.26
C      12.10      10.34      12.12
C       7.98       5.95       2.44
C       8.63       5.02       3.31
C       7.90       4.15       4.14
C      10.07       5.00       3.29
C      10.73       5.86       2.37
C      12.22       5.84       2.28
C       6.39       4.14       4.11
C       6.49       6.06       2.45
C       0.40       5.44       3.62
C       5.87       5.54       3.75
C       4.48      13.44       9.93
C       3.83      12.57      10.86
C       4.56      11.74      11.73
C       2.40      12.58      10.88
C       1.74      13.51      10.01
C       0.24      13.60      10.03
C       6.07      11.76      11.74
C       5.97      13.42       9.82
C      12.06      12.26      10.43
C       6.59      12.12      10.34
C      10.71       2.44       5.95
C      10.06       3.31       5.02
C      10.79       4.14       4.15
C       8.63       3.29       5.00
C       7.97       2.37       5.86
C       6.47       2.28       5.84
C      12.30       4.11       4.14
C      12.20       2.45       6.06
C       5.83       3.62       5.44
C       0.36       3.75       5.54
C       7.59      13.89       5.50
C       6.94      12.96       4.63
C       7.67      12.09       3.80
C       5.51      12.94       4.64
C       4.85      13.80       5.57
C       3.35      13.78       5.66
C       9.18      12.08       3.82
C       9.09      13.99       5.49
C       2.72      13.38       4.32
C       9.71      13.47       4.19
C       1.36       1.99      10.38
C       0.71       2.92      11.25
C       1.44       3.79      12.08
C      11.74       2.94      11.23
C      11.08       2.08      10.31
C       9.59       2.10      10.22
C       2.95       3.80      12.05
C       2.86       1.88      10.39
C       8.95       2.50      11.55
C       3.48       2.40      11.69
N       5.55       9.54       1.21
N       6.94       9.50       1.26
N      11.78       6.33      14.67
N       0.71       6.38      14.61
N       2.44       9.15      14.27
N       3.82       9.20      14.32
N       8.67       6.73       1.61
N      10.05       6.68       1.56
N       3.80      14.27       9.15
N       2.41      14.32       9.20
N      10.03       1.61       6.73
N       8.64       1.56       6.68
N       6.91      14.67       6.33
N       5.52      14.61       6.38
N       0.68       1.21       9.54
N      11.75       1.26       9.50
Cl       3.13       7.01       1.26
Cl       9.36       8.87      14.62
Cl       0.02       9.20       0.93
Cl       6.25       6.68      14.95
Cl       6.22       0.93       9.20
Cl      12.45      14.95       6.68
Cl       9.33      14.62       8.87
Cl       3.10       1.26       7.01
