13

O       8.40       4.41      11.11
O       9.68       4.63      12.92
O       7.76       5.28      15.33
O       6.25       6.65      16.25
C       8.78       5.06      12.12
C       8.12       6.41      12.40
C       7.19       6.43      15.44
C       7.72       7.56      14.56
N       8.71       7.10      13.57
H       8.20       7.03      11.49
H       7.05       6.23      12.55
H       6.87       8.07      14.08
H       8.21       8.28      15.24
