13

N      11.61      11.12       0.88
H      10.34      11.28      -0.78
O      13.79       9.45       3.30
O      14.23      10.73       1.54
O      12.71       9.40      -0.87
O      10.77       8.77      -1.80
C      13.41      10.14       2.32
C      11.92      10.26       2.05
C      11.44       9.47      -0.99
C      10.72      10.50      -0.11
H      11.43      10.64       2.97
H      11.52       9.25       1.90
H       9.85      10.01       0.37
