13

O      15.09       7.22      10.57
O      16.37       7.00       8.77
O      14.47       6.34       6.36
O      12.96       4.97       5.44
C      15.47       6.56       9.56
C      14.82       5.21       9.29
C      13.90       5.19       6.25
C      14.43       4.06       7.13
H      14.90       4.60      10.20
H      13.75       5.39       9.14
H      13.58       3.55       7.61
H      14.92       3.34       6.45
N      15.42       4.53       8.12
