13

O      12.06       6.52      10.57
O      11.23       5.52       8.77
O      11.62       7.51       6.36
O      11.17       9.51       5.43
C      11.30       6.52       9.56
C      10.46       7.76       9.28
C      10.90       8.58       6.24
C       9.66       8.68       7.13
H       9.89       8.00      10.19
H      11.15       8.60       9.13
H       9.65       9.67       7.61
N       9.57       7.59       8.11
H       8.79       8.61       6.45
