13

O      11.67       7.22       3.35
O      10.39       7.00       1.54
O      12.30       6.34      -0.87
O      13.81       4.97      -1.79
C      11.29       6.57       2.34
C      11.94       5.22       2.06
C      12.87       5.20      -0.98
C      12.34       4.06      -0.10
H      11.86       4.60       2.97
H      13.01       5.39       1.91
H      13.19       3.56       0.38
H      11.85       3.35      -0.77
N      11.35       4.53       0.89
