13

O       6.01       2.23       8.10
O       4.08       2.86       9.02
C       6.71       1.48       4.91
C       5.22       1.35       5.18
C       4.74       2.15       8.21
C       4.02       1.12       7.34
H       4.74       0.98       4.26
H       4.83       2.37       5.32
H       3.16       1.61       6.86
H       3.64       0.34       8.01
N       4.92       0.50       6.35
O       7.09       2.17       3.92
O       7.54       0.90       5.69
