44

O      -1.04       2.48       3.95
O      -0.11       0.52       4.65
H     -11.33       2.54       4.34
H      -9.12       1.40       4.67
H     -10.78      -0.78       7.98
H     -12.98       0.23       7.55
H      -9.52      -2.23       7.45
H      -5.34      -4.32       7.86
H      -5.42      -6.33       9.30
C      -1.09       1.30       4.39
C      -2.46       0.74       4.70
C      -3.60       1.57       4.72
C      -4.83       1.09       5.19
C      -4.96      -0.24       5.62
C      -3.84      -1.09       5.50
C      -2.61      -0.60       5.06
C      -6.23      -0.75       6.21
C      -6.19      -1.90       7.03
C      -8.50      -4.10       9.06
C      -8.47      -5.26       9.82
H      -3.50       2.60       4.40
H      -5.69       1.74       5.25
H      -3.92      -2.15       5.75
H      -1.74      -1.26       5.00
H      -5.23      -2.32       7.30
H      -9.41      -3.50       9.06
H      -9.34      -5.61      10.37
C     -13.72       1.86       5.61
C     -12.32       1.41       5.89
C     -11.21       1.78       5.11
C      -9.97       1.16       5.30
C      -9.80       0.18       6.30
C     -10.89      -0.10       7.14
C     -12.13       0.48       6.92
C      -8.53      -0.58       6.48
C      -8.56      -1.80       7.17
C      -7.38      -3.70       8.32
C      -7.37      -2.46       7.50
C      -6.25      -4.53       8.42
C      -6.28      -5.67       9.21
N      -7.38      -6.05       9.90
N      -7.38      -0.08       5.97
O     -13.95       2.92       4.90
O     -14.63       1.13       6.08
