44

C      -4.10      -1.71      16.35
C      -3.03      -1.41      15.50
C      -3.15      -0.46      14.49
C      -4.38       0.19      14.28
C      -5.48      -0.19      15.07
C      -5.34      -1.11      16.11
C      -4.51       1.27      13.26
C      -5.61       2.14      13.32
O      -2.82      -3.28      17.58
O      -4.79      -2.51      18.47
C      -7.04       5.14      11.54
C      -8.16       5.95      11.58
H      -0.01       0.83       8.94
H      -1.73       0.61      10.76
H      -3.18       4.54       9.79
H      -1.53       4.71       7.96
H      -4.98       3.83      10.46
H      -8.17       2.81      13.74
H     -10.07       4.42      13.75
H      -2.08      -1.92      15.67
H      -2.31      -0.19      13.86
H      -6.46       0.24      14.88
H      -6.19      -1.37      16.74
H      -6.29       2.09      14.17
H      -6.20       5.43      10.91
H      -8.25       6.85      10.96
C      -9.19       4.58      13.12
C      -5.81       3.09      12.31
C      -6.99       3.98      12.32
C      -3.91      -2.58      17.57
N      -9.22       5.69      12.36
N      -3.55       1.40      12.32
C       0.21       2.80       7.09
C      -0.70       2.76       8.30
C      -0.73       1.62       9.13
C      -1.68       1.50      10.14
C      -2.62       2.52      10.37
C      -2.52       3.70       9.59
C      -1.58       3.81       8.57
C      -3.69       2.35      11.38
C      -4.84       3.16      11.31
C      -8.11       3.71      13.12
O       0.99       1.80       6.98
O       0.07       3.78       6.30
