16

V      -0.51       3.87       8.24
V       2.99       3.55       8.24
O       2.58       4.91       6.83
O       0.25       5.10       9.64
O      -0.92       2.50       9.65
O       0.27       5.07       6.84
O      -0.90       2.48       6.83
C       1.45       5.48      10.06
O       1.42       2.86       8.24
C      -2.03       1.85       9.93
C       1.46       5.38       6.37
O      -2.09       4.56       8.24
C      -2.02       1.98       6.38
O       2.56       4.94       9.65
O      -3.21       2.32       6.84
O      -3.23       2.34       9.64
