35

O       5.85       9.70      12.42
O       4.28      11.32      12.60
O      -2.43       9.75      24.62
O      -0.90      11.39      24.43
H       0.65       5.60      20.31
H       1.72       9.38      18.53
H       3.01       5.59      16.93
H      -1.03       6.73      21.06
H      -2.06       7.86      23.02
H       0.58      11.19      22.52
H       1.72      10.03      20.64
H       4.61       6.76      16.11
H       5.57       7.86      14.10
H       2.80      11.10      14.51
H       1.73       9.96      16.43
C       1.16       6.20      19.56
C       1.11       7.60      19.59
C       1.76       8.29      18.56
C       2.45       7.59      17.56
C       2.47       6.20      17.65
C       0.42       8.29      20.70
C      -0.65       7.69      21.38
C      -1.25       8.33      22.47
C      -0.81       9.60      22.88
C       0.24      10.21      22.19
C       0.86       9.56      21.13
C      -1.41      10.30      24.05
C       3.09       8.28      16.42
C       4.19       7.70      15.75
C       4.75       8.32      14.64
C       4.25       9.55      14.18
C       3.18      10.15      14.86
C       2.60       9.51      15.96
C       4.82      10.24      12.99
N       1.83       5.52      18.62
