34

Zn       3.40      11.54      16.11
Zn       5.98      13.01       1.44
Zn       5.98      13.01      13.24
Zn       3.40      11.54      27.92
Zn       4.19      10.42      22.01
Zn       5.19      14.13       7.34
P       3.71      14.29      14.46
P       4.20      10.19      18.76
P       5.68      10.26      29.14
P       5.18      14.37       4.09
P       5.68      10.26      14.89
P       5.18      14.37      10.59
P       3.71      14.30      29.57
P       4.20      10.19      25.26
O       5.23      14.49      14.28
O       3.29      13.39      15.61
O       3.16      13.70      13.09
O       3.69      11.43      18.08
O       3.88      10.18      20.30
O       4.15      10.06      28.96
O       6.10      11.17      30.29
O       1.53      10.85      27.77
O       5.70      13.12       3.41
O       5.50      14.37       5.62
O       4.15      10.06      15.07
O       6.09      11.17      13.74
O       1.53      10.85      16.26
O       5.70      13.12      11.27
O       5.50      14.37       9.05
O       5.23      14.49      29.75
O       3.29      13.39      28.42
O       3.16      13.71      30.94
O       3.69      11.43      25.95
O       3.88      10.19      23.73
