34

Zn       3.40       0.73      27.92
Zn       5.98      -0.73      42.60
Zn       5.98      -0.73      30.79
Zn       3.40       0.73      16.12
Zn       4.19       1.86      22.02
Zn       5.19      -1.85      36.70
P       3.71      -2.02      29.57
P       4.20       2.09      25.27
P       5.68       2.02      14.90
P       5.18      -2.09      39.95
P       5.68       2.02      29.14
P       5.18      -2.09      33.45
P       3.70      -2.02      14.46
P       4.20       2.09      18.77
O       5.23      -2.21      29.75
O       3.29      -1.11      28.42
O       3.16      -1.43      30.94
O       3.69       0.85      25.95
O       3.88       2.09      23.74
O       4.15       2.21      15.07
O       6.10       1.11      13.74
O       1.53       1.43      16.27
O       5.70      -0.84      40.63
O       5.50      -2.09      38.41
O       4.15       2.22      28.96
O       6.09       1.11      30.29
O       1.53       1.43      27.77
O       5.70      -0.84      32.77
O       5.50      -2.09      34.98
O       5.23      -2.21      14.28
O       3.29      -1.11      15.62
O       3.16      -1.43      13.09
O       3.69       0.85      18.09
O       3.88       2.09      20.30
