40

C       4.54       9.89       8.53
C       5.67      10.85       8.49
C       6.26      11.19       7.26
C       7.31      12.10       7.20
C       7.79      12.69       8.37
C       7.21      12.36       9.61
C       6.16      11.45       9.67
C       9.93      13.31       7.42
C      10.49      12.02       7.49
C      11.44      11.63       6.56
C      11.86      12.52       5.54
C      11.34      13.82       5.52
C      10.39      14.22       6.46
C       8.80      14.85       9.00
C       9.98      15.52       9.38
C       9.91      16.74      10.05
C       8.67      17.29      10.40
C       7.49      16.61      10.04
C       7.55      15.42       9.33
C       8.58      18.60      11.11
C      12.75      12.03       4.47
N       8.86      13.63       8.30
O      13.21      10.80       4.53
O      13.00      12.73       3.44
O       3.99       9.64       9.66
O       4.17       9.33       7.43
O       9.63      19.33      11.20
O       7.44      18.99      11.55
H       5.86      10.76       6.34
H       7.75      12.36       6.24
H       7.60      12.81      10.52
H       5.71      11.19      10.62
H      10.16      11.32       8.25
H      11.85      10.63       6.61
H      11.66      14.51       4.73
H       9.96      15.22       6.42
H      10.95      15.09       9.14
H      10.82      17.27      10.32
H       6.52      17.02      10.30
H       6.63      14.93       9.02
