40

C      11.71       3.88      12.35
N      15.32       1.27       8.78
C      12.68       3.24      11.43
C      13.11       3.88      10.25
C      13.99       3.25       9.38
C      14.45       1.95       9.67
C      14.04       1.31      10.86
C      13.17       1.96      11.73
C      16.44       1.24       6.63
C      16.41       1.28       5.24
C      15.20       1.50       4.55
C      14.03       1.68       5.30
C      14.04       1.63       6.69
C      15.20       1.52       3.07
H      12.75       4.89      10.03
H      14.33       3.76       8.49
C      15.25       1.39       7.38
H      12.84       1.48      12.64
C      16.26       0.34       9.32
C      16.30      -0.97       8.81
O      11.19       5.01      12.02
O      11.41       3.30      13.45
C      17.15       0.72      10.34
H      17.38       1.08       7.15
H      17.32       1.16       4.67
H      13.09       1.85       4.76
H      13.12       1.74       7.26
H      15.61      -1.26       8.02
O      14.15       1.89       2.44
O      16.27       1.16       2.44
H      17.26      -2.89       8.92
O      19.91      -2.18      11.77
O      19.06      -3.70      10.37
H      18.77       0.09      11.62
C      19.09      -2.51      10.85
C      18.12      -1.51      10.33
H      14.38       0.31      11.08
C      17.22      -1.88       9.31
C      18.07      -0.20      10.84
H      17.11       1.73      10.72
