40

C       5.82      13.96      12.63
N       8.57      12.48      14.69
O      12.70       8.74      11.45
O      12.48      10.46      10.02
O       3.98      15.93      11.70
O       4.83      17.46      13.10
O       9.74      11.87      21.03
O       7.62      12.60      21.03
H      11.14       8.87      13.44
H       9.56       9.99      14.99
H       9.51      13.45      12.39
H      11.05      12.27      10.83
H       6.51      12.68      16.32
H       6.57      12.59      18.81
H      10.80      11.90      18.71
H      10.77      12.01      16.22
H       6.63      16.65      14.55
H       8.28      15.02      15.45
H       6.78      12.02      12.75
H       5.12      13.67      11.85
C      12.18       9.87      11.12
C      11.21      10.51      12.04
C      10.78       9.87      13.22
C       9.90      10.50      14.09
C       9.44      11.81      13.81
C       9.85      12.44      12.62
C      10.72      11.79      11.74
C       8.64      12.36      16.10
C       7.45      12.52      16.84
C       7.48      12.48      18.23
C       8.69      12.26      18.92
C       9.86      12.07      18.17
C       9.85      12.13      16.78
C       8.69      12.24      20.40
C       4.80      16.27      12.62
C       5.77      15.26      13.15
C       6.67      15.63      14.16
C       7.59      14.72      14.66
C       7.63      13.42      14.15
C       6.74      13.04      13.13
