40

C       7.41       4.00      20.27
C       6.27       4.96      20.23
C       5.69       5.30      18.99
C       4.64       6.20      18.93
C       4.15       6.80      20.11
C       4.73       6.47      21.35
C       5.78       5.56      21.40
C       2.01       7.42      19.16
C       1.46       6.13      19.22
C       0.50       5.74      18.29
C       0.08       6.63      17.28
C       0.60       7.93      17.25
C       1.55       8.33      18.19
C       3.15       8.96      20.74
C       1.97       9.63      21.11
C       2.04      10.85      21.78
C       3.28      11.40      22.14
C       4.45      10.72      21.78
C       4.39       9.53      21.07
C       3.37      12.71      22.84
N       3.09       7.74      20.04
C      -0.81       6.14      16.20
H       6.08       4.87      18.07
H       4.20       6.47      17.97
H       4.34       6.92      22.26
H       6.23       5.30      22.36
H       1.78       5.43      19.99
H       0.10       4.74      18.35
H       0.29       8.62      16.47
H       1.99       9.33      18.15
O       7.95       3.75      21.40
O       7.78       3.44      19.17
O      -1.26       4.91      16.27
O      -1.06       6.84      15.18
H       1.00       9.20      20.88
H       5.31       9.04      20.76
H       1.13      11.38      22.05
H       5.42      11.13      22.04
O       2.32      13.44      22.93
O       4.51      13.10      23.29
