22

Mn       5.52      16.74      10.88
Mn       7.38      19.51       9.75
Mn       8.31      17.77      12.59
P       5.67      16.20      13.64
P       8.02      16.68       9.00
P       4.77      20.22      10.91
C       4.29      17.18      14.29
C       6.59      15.70       9.49
C       8.84      20.58       9.47
C       7.93      21.70       7.55
C       7.84      22.83       9.74
N       3.87      17.19      15.53
N       6.24      14.55       8.98
N       7.94      21.53       9.03
O       6.57      15.52      14.61
O       4.93      15.44      12.51
O       6.38      17.41      12.81
O       7.45      18.06       8.53
O       3.52      16.89      10.50
O       5.59      21.31      11.49
O       8.60      19.58      11.75
O       5.61      18.98      10.37
