24

N       3.20      16.90      11.67
N       2.39      17.09      10.65
H       4.90      13.62      16.67
H       1.85      13.62      13.62
H       4.90      16.67      13.62
C       4.46      14.06      15.78
C       2.74      14.06      14.06
C       4.46      15.78      14.06
N       3.20      11.67      16.90
N       2.39      10.65      17.09
N       6.85      16.90      15.32
N       7.87      17.09      16.13
C       5.03      15.21      15.21
C       6.23      15.80      15.80
C       3.31      13.49      15.21
C       2.72      12.29      15.80
N       1.62      15.32      11.67
N       1.43      16.13      10.65
C       3.31      15.21      13.49
C       2.72      15.80      12.29
N       6.85      15.32      16.90
N       7.87      16.13      17.09
N       1.62      11.67      15.32
N       1.43      10.65      16.13
