513

Zn       9.22       6.53       1.57
Zn       0.31       5.59       3.21
Zn       5.25      28.45      24.02
Zn       9.22      18.47      22.26
Zn       9.22       4.63       4.87
Zn       1.36      14.67       3.11
Zn       0.31      16.59      22.26
Zn       8.08      27.54      22.35
Zn       9.19      28.50       4.87
Zn       0.28      27.54       3.20
Zn       5.24      31.23      12.69
Zn       9.18      26.60       1.58
Zn       1.35      23.10      11.15
Zn       8.07      33.10      12.70
Zn       9.23      14.66      22.26
Zn       5.23      39.67      20.73
Zn       1.37      11.93      14.44
Zn       8.07      38.69      22.39
Zn       5.25      26.57      20.75
Zn       1.36      21.20      14.44
Zn       5.23      35.03      12.69
Zn       1.37      10.03      11.14
Zn       5.24      37.76      24.01
Zn       1.35      18.47       3.12
Zn       4.18      22.16      12.77
Zn       4.18      16.59       3.12
Zn       4.20      10.98      12.77
H       1.56       9.53       3.87
H       1.97      19.88      28.34
H       2.15      11.97       4.20
H      10.63      13.19       1.96
H       9.85      10.80       1.64
H       5.04       4.54       5.10
H       2.51       4.61       5.03
H       1.97      18.54      26.02
H       5.05       6.68       1.37
H       2.52       6.67       1.46
H       9.38      25.04      25.45
H      10.00      23.55      27.40
H       6.76       8.29       0.89
H       5.94      26.30      27.69
H       9.99       4.48       2.59
H       1.56      25.03       6.32
H       1.93      31.79       3.06
H       2.14      23.52       8.27
H      10.63      24.84      10.44
H       9.85      26.32       8.53
H       5.02      26.45       1.37
H       2.49      26.47       1.45
H       1.93      34.47       3.05
H       5.00      28.59       5.10
H       2.48      28.53       5.03
H       9.38      31.71       8.98
H       9.96      30.78       6.70
H       6.71      28.23       6.75
H       5.92      29.15       8.97
H       9.95      28.66       2.59
H       1.59      15.15      18.52
H       1.93      47.73      26.02
H       2.17      14.22      16.24
H      10.65      11.68      16.31
H       9.88      12.59      18.54
H       5.05      18.72      22.24
H       2.53      18.64      22.20
H       1.93      46.38      28.34
H       5.04      14.42      22.23
H       2.52      14.51      22.20
H       9.40      42.65      23.01
H       9.98      45.09      23.34
H       6.77      13.16      21.09
H       5.96      43.90      20.77
H       9.99      16.56      23.54
H       1.56      17.98      18.53
H       2.15      18.93      16.25
H      10.63      21.46      16.31
H       9.84      20.54      18.53
H       9.37      23.62      23.00
H       9.99      21.19      23.32
H       6.76      19.93      21.09
H       5.94      22.30      20.78
H       1.58       8.10       6.32
H       2.16       9.61       8.26
H      10.65       8.29      10.44
H       9.87       6.81       8.53
H       9.39      34.53       8.96
H       9.97      35.48       6.68
H       6.77       4.89       6.76
H       5.95      37.10       8.99
H       1.54      23.62       3.86
H       2.13      21.18       4.19
H      10.62      19.95       1.96
H       9.83      22.33       1.64
H       9.38      41.21      25.45
H       9.97      42.72      27.40
H       6.72      24.84       0.87
H       5.93      39.94      27.68
H       5.44      26.08      13.40
H       5.84      19.89       9.20
H       6.05      28.51      13.73
H       2.79      29.76      11.51
H       1.99      27.38      11.20
H       8.90      21.09      14.66
H       6.38      21.16      14.59
H       5.84      18.55       6.87
H       8.92      23.24      10.94
H       6.40      23.23      11.02
H       2.11      21.04      12.16
H       5.45      41.58      15.90
H       5.86      15.23      12.63
H       6.04      40.10      17.86
H       2.77      41.42      20.01
H       1.99      42.88      18.09
H       8.94       9.89      10.94
H       6.41       9.91      11.02
H       5.85      17.91      12.64
H       8.92      12.04      14.67
H       6.40      11.97      14.59
H       2.13      12.09      12.16
H       5.48      31.73      28.07
H       5.85      14.59       6.87
H       6.06      30.76      25.81
H       2.80      28.23      25.90
H       2.03      29.17      28.12
H       8.92      18.72       3.10
H       6.40      18.64       3.07
H       5.85      13.24       9.19
H       8.90      14.42       3.10
H       6.38      14.52       3.07
H       2.11      16.56       4.39
H       5.44      34.57      28.12
H       6.05      35.50      25.85
H       2.79      38.05      25.88
H       1.99      37.13      28.10
H       5.48      24.69      15.89
H       6.06      26.17      17.86
H       2.80      24.83      20.00
H       2.02      23.38      18.08
H       5.42      40.18      13.41
H       6.02      37.75      13.74
H       2.76      36.51      11.53
H       1.97      38.89      11.20
H       9.73      36.47      18.76
H       1.07      37.65      24.24
H      10.28      37.69      24.17
H       9.73      35.13      16.44
H       1.05      39.81      20.51
H      10.26      39.75      20.60
H       6.01      37.62      21.72
H       9.73      31.78      22.23
H       1.07      26.46      20.51
H      10.29      26.48      20.58
H       9.72      34.46      22.23
H       1.06      28.61      24.23
H      10.27      28.54      24.16
H       5.99      28.63      21.74
H       9.72      31.12      16.44
H       1.04      35.28      12.67
H      10.26      35.18      12.67
H       9.73      29.78      18.76
H       1.07      30.98      12.67
H      10.28      31.05      12.67
H       6.01      33.14      13.96
C      11.72      20.57      27.82
C      11.34       4.84       0.26
C       0.95      10.32       3.45
C      11.16       8.54       2.54
C       1.16      19.87      27.61
C      11.53       9.99       2.73
C       1.28      11.66       3.62
C      11.18      12.35       2.38
C      10.76      11.03       2.20
C       6.75       5.63       3.25
C       5.24       5.63       3.25
C       4.51       5.03       4.29
C       3.12       5.06       4.25
C      11.72      19.34      25.68
C      11.34      18.76      24.39
C       1.16      19.17      26.39
C       4.52       6.23       2.21
C       3.13       6.22       2.25
C       8.77      25.00      26.35
C       7.20      26.64      25.26
C       7.61      25.77      26.42
C       9.13      24.19      27.42
C       7.30      24.91      28.65
C       6.85      25.71      27.60
C      11.68      31.90       3.92
C      11.31      30.48       4.06
C       0.94      24.99       7.21
C      11.15      26.67       6.12
C       1.13      32.43       3.41
C      11.53      25.78       7.28
C       1.28      24.18       8.29
C      11.18      24.91       9.50
C      10.76      25.72       8.45
C       6.72      27.50       3.25
C       5.20      27.50       3.25
C       4.49      26.91       2.20
C       3.09      26.92       2.24
C      11.68      34.36       3.91
C      11.35       2.65       4.05
C       1.12      33.84       3.41
C       4.48      28.10       4.28
C       3.09      28.07       4.25
C       8.76      30.95       8.50
C       7.22      31.05      10.49
C       7.60      30.50       9.14
C       9.09      30.43       7.25
C       7.26      29.02       7.27
C       6.83      29.52       8.50
C      11.68      46.93      25.68
C      11.35      14.39      24.39
C       0.97      14.39      18.04
C      11.18      14.50      20.04
C       1.13      47.10      26.39
C      11.56      13.94      18.69
C       1.30      13.87      16.80
C      11.20      12.46      16.83
C      10.78      12.96      18.06
C       6.76      16.57      22.21
C       5.24      16.57      22.21
C       4.52      17.77      22.21
C       3.13      17.73      22.20
C      11.68      45.70      27.81
C      11.30      28.29       0.26
C       1.13      46.39      27.61
C       4.51      15.37      22.21
C       3.12      15.42      22.20
C       8.78      43.44      22.59
C       7.25      41.65      21.70
C       7.63      43.10      21.87
C       9.11      44.78      22.76
C       7.28      45.45      21.51
C       6.86      44.14      21.33
C       0.94      18.74      18.05
C      11.14      18.62      20.04
C      11.52      19.19      18.69
C       1.28      19.27      16.81
C      11.18      20.68      16.83
C      10.75      20.18      18.06
C       8.76      22.82      22.58
C       7.21      24.58      21.69
C       7.60      23.14      21.87
C       9.12      21.49      22.74
C       7.29      20.78      21.51
C       6.85      22.09      21.33
C       0.96       8.14       7.21
C      11.16       6.47       6.12
C      11.54       7.35       7.28
C       1.29       8.95       8.29
C      11.19       8.23       9.50
C      10.77       7.41       8.45
C       8.78      35.29       8.49
C       7.24      35.18      10.49
C       7.63      35.75       9.14
C       9.11      35.82       7.24
C       7.27      37.24       7.28
C       6.86      36.74       8.51
C       0.92      22.83       3.44
C      11.12      24.61       2.55
C      11.50      23.15       2.73
C       1.26      21.49       3.61
C      11.16      20.80       2.38
C      10.73      22.11       2.20
C       8.76      41.25      26.35
C       7.22      39.57      25.27
C       7.60      40.47      26.42
C       9.10      42.07      27.42
C       7.27      41.35      28.64
C       6.84      40.53      27.59
C       3.85      20.57       8.68
C       3.47      21.40       9.84
C       4.83      26.87      12.99
C       3.28      25.10      12.09
C       5.04      19.88       8.47
C       3.67      26.55      12.28
C       5.17      28.21      13.16
C       3.33      28.91      11.93
C       2.90      27.60      11.75
C      10.63      22.19      12.82
C       9.11      22.19      12.81
C       8.38      21.59      13.85
C       6.99      21.62      13.82
C       3.85      19.34       6.55
C       3.47      18.76       5.25
C       5.04      19.17       7.25
C       8.39      22.79      11.77
C       7.00      22.78      11.81
C       3.86      15.33      13.48
C       3.49      13.91      13.61
C       4.83      41.55      16.79
C       3.34      10.09      15.68
C       5.05      15.86      12.99
C       3.67      42.33      16.85
C       5.17      40.75      17.87
C       3.32      41.48      19.07
C       2.90      42.28      18.02
C      10.64      10.94      12.82
C       9.12      10.94      12.81
C       8.41      10.35      11.77
C       7.01      10.36      11.80
C       3.86      17.80      13.48
C       3.48      19.21      13.63
C       5.05      17.27      12.99
C       8.40      11.54      13.85
C       7.00      11.51      13.81
C       3.86      13.81       6.54
C       3.48      14.40       5.24
C       4.86      30.96      27.61
C       3.32      14.52       0.90
C       5.04      13.97       7.24
C       3.71      30.52      28.26
C       5.19      30.42      26.37
C       3.35      29.01      26.41
C       2.93      29.53      27.64
C      10.62      16.57       3.07
C       9.10      16.57       3.08
C       8.39      17.77       3.08
C       7.00      17.74       3.07
C       3.86      12.57       8.67
C       3.49      11.73       9.83
C       5.05      13.26       8.46
C       8.38      15.37       3.08
C       6.99      15.42       3.07
C       4.83      35.33      27.64
C       3.28      18.65       0.91
C       3.67      35.78      28.27
C       5.17      35.85      26.39
C       3.34      37.26      26.40
C       2.90      36.76      27.63
C       4.86      24.72      16.78
C       3.32      23.05      15.67
C       3.70      23.93      16.84
C       5.19      25.52      17.87
C       3.35      24.78      19.07
C       2.93      23.98      18.01
C       4.81      39.39      13.00
C       3.31       8.03      12.09
C       3.65      39.71      12.28
C       5.15      38.05      13.17
C       3.31      37.35      11.94
C       2.88      38.67      11.76
C       7.72      37.12      18.26
C       7.35      37.95      19.42
C       8.92      36.45      18.04
C       2.77      38.78      22.40
C       1.25      38.75      22.39
C       0.54      38.14      23.42
C      10.88      38.15      23.39
C       7.72      35.89      16.12
C       7.35      35.31      14.82
C       8.92      35.74      16.82
C       0.52      39.34      21.35
C      10.87      39.31      21.39
C       7.72      31.88      23.04
C       7.36      30.46      23.18
C       8.92      32.42      22.56
C       2.77      27.47      22.41
C       1.26      27.51      22.38
C       0.54      26.92      21.34
C      10.89      26.93      21.37
C       7.72      34.35      23.05
C       7.35      35.77      23.20
C       8.91      33.82      22.57
C       0.53      28.11      23.42
C      10.88      28.08      23.38
C       7.71      30.36      16.13
C       7.35      30.95      14.83
C       8.91      30.51      16.82
C       2.77      33.14      12.62
C       1.25      33.13      12.65
C       0.52      34.33      12.66
C      10.87      34.28      12.66
C       7.72      29.13      18.26
C       7.35      28.30      19.42
C       8.91      29.81      18.04
C       0.53      31.93      12.66
C      10.88      31.96      12.66
S      10.60      20.36      26.52
S      10.56      33.13       4.37
S      10.56      45.92      26.52
S       2.73      20.35       7.39
S       2.74      16.56      13.93
S       2.73      12.80       7.38
S       6.59      36.88      16.98
S       6.59      33.11      23.48
S       6.59      29.37      16.98
N       0.55      12.66       3.09
N       2.44       5.65       3.25
N       8.41      24.15      28.57
N       4.46      29.45      25.78
N       0.54      24.13       9.42
N       2.40      27.49       3.25
N       8.37      29.47       6.64
N       4.45      29.22      12.63
N       0.57      12.91      16.20
N       2.44      16.58      22.19
N       8.38      45.78      22.22
N       4.43      40.71      19.01
N       0.55      20.23      16.20
N       8.40      20.48      22.21
N       4.46      25.55      19.00
N       0.56       9.00       9.42
N       8.37      36.79       6.64
N       4.42      37.04      12.64
N       0.53      20.48       3.08
N       8.38      42.11      28.56
N       4.45      36.81      25.78
N       6.31      22.21      12.81
N       6.32      10.93      12.81
N       6.30      16.58       3.05
N      10.19      38.73      22.39
N      10.20      27.49      22.38
N      10.19      33.12      12.66
O       9.99       5.32       3.07
O       0.47       5.03       1.16
O       9.96       8.32       2.16
O      10.13       5.29       0.24
O       7.30       6.21       2.26
O       0.33       7.69       2.77
O       0.47      18.08      23.77
O      10.13      19.00      24.01
O       7.30       5.06       4.25
O       5.99      27.04      25.27
O       8.10      26.89      24.41
O       6.02      27.79      22.22
O       0.48       3.52       3.77
O       6.15      30.24      23.57
O       3.32      28.02      23.41
O       0.33       6.24       5.27
O       9.96      27.81       3.07
O       0.44      29.61       3.77
O       9.95      27.11       6.14
O      10.10      30.28       4.46
O       7.27      28.07       4.25
O       0.31      26.88       5.26
O      10.14       2.85       4.46
O       7.27      26.93       2.26
O       6.00      30.88      10.84
O       8.14      31.61      11.15
O       6.01      33.13      12.99
O       0.44      28.11       1.16
O       6.14      30.70      14.44
O       3.32      31.99      12.63
O       0.30      25.45       2.72
O      10.00      16.57      22.56
O       0.48      15.07      23.77
O       9.98      14.26      20.42
O      10.14      14.14      24.01
O       7.31      15.42      22.20
O       0.34      15.14      20.66
O      10.10      27.84       0.24
O       7.30      17.71      22.21
O       6.05      41.44      21.29
O       8.14      40.80      21.97
O       6.01      38.45      22.22
O       6.13      38.39      19.42
O       3.31      39.40      21.43
O       0.33      18.04      20.68
O       9.93      18.81      20.40
O       6.00      24.79      21.32
O       8.11      25.44      21.92
O       6.14      27.86      19.43
O       3.33      26.88      21.43
O       9.96       6.04       6.12
O       6.05      35.43      10.87
O       8.14      34.51      11.08
O       6.13      35.54      14.44
O       3.31      34.29      12.57
O       9.90      24.82       2.21
O       6.00      39.19      25.24
O       8.15      39.29      24.46
O       6.14      35.98      23.61
O       3.32      38.19      23.38
O       2.13      21.88      12.64
O       4.35      21.59      10.73
O       2.06      24.89      11.76
O       2.27      21.85       9.82
O      11.17      22.77      11.83
O       4.20      24.25      12.27
O       4.35      18.08       4.64
O       2.26      19.00       4.87
O      11.18      21.63      13.82
O       4.35      20.09      13.35
O       4.21      22.85      14.80
O       2.14      11.24      12.64
O       4.37      13.04      13.34
O       2.14      10.54      15.71
O       2.28      13.70      14.00
O      11.19      11.50      13.82
O       4.23      10.29      14.81
O       2.27      19.42      14.03
O      11.19      10.36      11.83
O       4.36      11.54      10.72
O       4.22       8.89      12.28
O       2.13      16.57       3.42
O       4.36      15.06       4.62
O       2.12      14.27       1.28
O       2.26      14.18       4.87
O      11.17      15.42       3.05
O       4.21      15.18       1.50
O       2.28      11.28       9.81
O      11.17      17.71       3.07
O       4.19      18.07       1.56
O       2.06      18.84       1.27
O       2.13      22.59      15.70
O       2.09       8.24      11.74
O       8.23      38.16      20.31
O       8.22      34.64      14.20
O       8.23      36.63      22.91
O       8.24      29.60      22.91
O       8.24      28.09      20.30
O       8.23      31.62      14.22
