936

H      27.58      38.42      14.56
H       0.45      37.54      11.31
H       1.30       1.07      11.05
H       0.26       2.03      10.21
H       1.79       0.56      16.09
H       0.83       1.26      14.93
H       4.65      35.94      14.24
H       4.27      35.31      12.79
H      24.47       2.63      11.79
H      23.98       1.91      13.19
H       2.32      34.81      11.65
H       3.98      37.09      15.93
H      26.24       2.04       9.86
H      24.34      39.09      14.24
H      13.17       0.77      24.63
H      14.86       1.66      27.88
H      15.71      38.13      28.15
H      14.67      37.17      28.99
H      16.21      38.64      23.10
H      15.25      37.94      24.26
H      19.08       3.24      24.96
H      18.69       3.88      26.41
H      10.05      36.57      27.40
H       9.57      37.28      26.00
H      16.74       4.38      27.54
H      18.39       2.10      23.26
H      11.84      37.16      29.34
H       9.92       0.11      24.95
H       5.96      24.63      38.42
H       7.65      27.88      37.54
H       8.50      28.15       1.06
H       7.46      28.99       2.02
H       9.00      23.11       0.56
H       8.04      24.26       1.26
H      11.86      24.96      35.94
H      11.47      26.41      35.30
H       2.84      27.40       2.63
H       2.35      26.00       1.91
H       9.53      27.55      34.81
H      11.19      23.27      37.10
H       4.64      29.34       2.04
H       2.71      24.95      39.09
H      20.37      14.56       0.78
H      22.07      11.31       1.66
H      22.92      11.05      38.13
H      21.88      10.21      37.16
H      23.41      16.09      38.64
H      22.46      14.93      37.94
H      26.27      14.23       3.26
H      25.89      12.78       3.89
H      17.25      11.80      36.57
H      16.77      13.20      37.28
H      23.94      11.65       4.38
H      25.60      15.92       2.10
H      19.06       9.85      37.16
H      17.13      14.25       0.11
H      25.65       6.30      10.73
H      26.10       4.74       6.18
H      26.85       3.33       7.97
H      25.46       7.65       3.18
H      23.29      10.06       5.88
H      23.88       8.56       7.64
H      11.23      32.89      28.47
H      11.69      34.45      33.01
H      12.44      35.86      31.23
H      11.05      31.54      36.02
H       8.87      29.14      33.31
H       9.46      30.63      31.56
H       4.01      28.46       6.30
H       4.50      33.01       4.75
H       5.24      31.22       3.35
H       3.85      36.02       7.66
H       1.66      33.31      10.06
H       2.26      31.56       8.57
H      18.42      10.73      32.89
H      18.92       6.19      34.44
H      19.66       7.98      35.84
H      18.27       3.18      31.54
H      16.08       5.88      29.13
H      16.67       7.64      30.63
H      24.83       1.18      18.47
H      21.47      37.17      17.13
H      23.29      37.62      15.65
H      17.83      37.45      19.28
H      19.84      39.14      22.60
H      21.85       0.03      21.29
H      10.41      38.02      20.72
H       7.05       2.02      22.07
H       8.87       1.58      23.54
H       3.41       1.74      19.91
H       5.42       0.06      16.59
H       7.43      39.17      17.90
H       3.20      20.72       1.18
H      28.68      22.07      37.17
H       1.66      23.54      37.62
H      25.03      19.91      37.45
H      27.05      16.59      39.13
H       0.22      17.90       0.02
H      17.62      18.48      38.02
H      14.26      17.13       2.03
H      16.08      15.65       1.58
H      10.62      19.28       1.74
H      12.63      22.60       0.06
H      14.64      21.30      39.18
H      27.58      38.42      26.56
H       0.45      37.54      23.31
H       1.30       1.07      23.05
H       0.26       2.03      22.21
H       1.79       0.56      28.09
H       0.83       1.26      26.93
H       4.65      35.94      26.24
H       4.27      35.31      24.79
H      24.47       2.63      23.79
H      23.98       1.91      25.19
H       2.32      34.81      23.65
H       3.98      37.09      27.93
H      26.24       2.04      21.86
H      24.34      39.09      26.24
H      13.17       0.77      36.63
H      14.86       1.66       0.70
H      15.71      38.13       0.96
H      14.67      37.17       1.80
H      16.21      38.64      35.10
H      15.25      37.94      36.26
H      19.08       3.24      36.96
H      18.69       3.88      38.41
H      10.05      36.57       0.21
H       9.57      37.28      38.00
H      16.74       4.38       0.36
H      18.39       2.10      35.26
H      11.84      37.16       2.15
H       9.92       0.11      36.95
H       5.96      24.63      11.23
H       7.65      27.88      10.35
H       8.50      28.15      13.06
H       7.46      28.99      14.02
H       9.00      23.11      12.56
H       8.04      24.26      13.26
H      11.86      24.96       8.75
H      11.47      26.41       8.12
H       2.84      27.40      14.63
H       2.35      26.00      13.91
H       9.53      27.55       7.63
H      11.19      23.27       9.91
H       4.64      29.34      14.04
H       2.71      24.95      11.90
H      20.37      14.56      12.78
H      22.07      11.31      13.66
H      22.92      11.05      10.94
H      21.88      10.21       9.98
H      23.41      16.09      11.45
H      22.46      14.93      10.75
H      26.27      14.23      15.26
H      25.89      12.78      15.89
H      17.25      11.80       9.38
H      16.77      13.20      10.10
H      23.94      11.65      16.38
H      25.60      15.92      14.10
H      19.06       9.85       9.97
H      17.13      14.25      12.11
H      25.65       6.30      22.73
H      26.10       4.74      18.18
H      26.85       3.33      19.97
H      25.46       7.65      15.18
H      23.29      10.06      17.88
H      23.88       8.56      19.64
H      11.23      32.89       1.28
H      11.69      34.45       5.82
H      12.44      35.86       4.04
H      11.05      31.54       8.83
H       8.87      29.14       6.12
H       9.46      30.63       4.37
H       4.01      28.46      18.30
H       4.50      33.01      16.75
H       5.24      31.22      15.35
H       3.85      36.02      19.66
H       1.66      33.31      22.06
H       2.26      31.56      20.57
H      18.42      10.73       5.71
H      18.92       6.19       7.26
H      19.66       7.98       8.66
H      18.27       3.18       4.35
H      16.08       5.88       1.95
H      16.67       7.64       3.44
H      24.83       1.18      30.47
H      21.47      37.17      29.13
H      23.29      37.62      27.65
H      17.83      37.45      31.28
H      19.84      39.14      34.60
H      21.85       0.03      33.29
H      10.41      38.02      32.72
H       7.05       2.02      34.07
H       8.87       1.58      35.54
H       3.41       1.74      31.91
H       5.42       0.06      28.59
H       7.43      39.17      29.90
H       3.20      20.72      13.18
H      28.68      22.07       9.99
H       1.66      23.54      10.43
H      25.03      19.91      10.27
H      27.05      16.59      11.95
H       0.22      17.90      12.02
H      17.62      18.48      10.84
H      14.26      17.13      14.03
H      16.08      15.65      13.58
H      10.62      19.28      13.74
H      12.63      22.60      12.06
H      14.64      21.30      11.99
H      27.58      38.42      38.56
H       0.45      37.54      35.31
H       1.30       1.07      35.05
H       0.26       2.03      34.21
H       1.79       0.56       0.91
H       0.83       1.26      38.93
H       4.65      35.94      38.24
H       4.27      35.31      36.79
H      24.47       2.63      35.79
H      23.98       1.91      37.19
H       2.32      34.81      35.65
H       3.98      37.09       0.75
H      26.24       2.04      33.86
H      24.34      39.09      38.24
H      13.17       0.77       9.45
H      14.86       1.66      12.70
H      15.71      38.13      12.96
H      14.67      37.17      13.80
H      16.21      38.64       7.92
H      15.25      37.94       9.07
H      19.08       3.24       9.77
H      18.69       3.88      11.23
H      10.05      36.57      12.21
H       9.57      37.28      10.82
H      16.74       4.38      12.36
H      18.39       2.10       8.08
H      11.84      37.16      14.15
H       9.92       0.11       9.77
H       5.96      24.63      23.23
H       7.65      27.88      22.35
H       8.50      28.15      25.06
H       7.46      28.99      26.02
H       9.00      23.11      24.56
H       8.04      24.26      25.26
H      11.86      24.96      20.75
H      11.47      26.41      20.12
H       2.84      27.40      26.63
H       2.35      26.00      25.91
H       9.53      27.55      19.63
H      11.19      23.27      21.91
H       4.64      29.34      26.04
H       2.71      24.95      23.90
H      20.37      14.56      24.78
H      22.07      11.31      25.66
H      22.92      11.05      22.94
H      21.88      10.21      21.98
H      23.41      16.09      23.45
H      22.46      14.93      22.75
H      26.27      14.23      27.26
H      25.89      12.78      27.89
H      17.25      11.80      21.38
H      16.77      13.20      22.10
H      23.94      11.65      28.38
H      25.60      15.92      26.10
H      19.06       9.85      21.97
H      17.13      14.25      24.11
H      25.65       6.30      34.73
H      26.10       4.74      30.18
H      26.85       3.33      31.97
H      25.46       7.65      27.18
H      23.29      10.06      29.88
H      23.88       8.56      31.64
H      11.23      32.89      13.28
H      11.69      34.45      17.82
H      12.44      35.86      16.04
H      11.05      31.54      20.83
H       8.87      29.14      18.12
H       9.46      30.63      16.37
H       4.01      28.46      30.30
H       4.50      33.01      28.75
H       5.24      31.22      27.35
H       3.85      36.02      31.66
H       1.66      33.31      34.06
H       2.26      31.56      32.57
H      18.42      10.73      17.71
H      18.92       6.19      19.26
H      19.66       7.98      20.66
H      18.27       3.18      16.35
H      16.08       5.88      13.95
H      16.67       7.64      15.44
H      24.83       1.18       3.29
H      21.47      37.17       1.94
H      23.29      37.62       0.47
H      17.83      37.45       4.10
H      19.84      39.14       7.41
H      21.85       0.03       6.11
H      10.41      38.02       5.53
H       7.05       2.02       6.89
H       8.87       1.58       8.36
H       3.41       1.74       4.73
H       5.42       0.06       1.41
H       7.43      39.17       2.71
H       3.20      20.72      25.18
H      28.68      22.07      21.99
H       1.66      23.54      22.43
H      25.03      19.91      22.27
H      27.05      16.59      23.95
H       0.22      17.90      24.02
H      17.62      18.48      22.84
H      14.26      17.13      26.03
H      16.08      15.65      25.58
H      10.62      19.28      25.74
H      12.63      22.60      24.06
H      14.64      21.30      23.99
C      28.47       0.21      12.91
C      27.43      39.11      13.82
C      26.17       0.54      13.73
C      25.90       1.42      12.64
C      26.94       1.69      11.70
C      28.23       1.10      11.83
C       0.85      38.64      13.07
C       1.65      38.71      14.24
C       2.66      37.71      14.43
C       2.95      36.75      13.42
C       2.14      36.71      12.25
C       1.08      37.63      12.11
C      14.05      38.99      26.28
C      13.01       0.08      25.37
C      11.75      38.65      25.47
C      11.48      37.77      26.55
C      12.52      37.50      27.49
C      13.82      38.09      27.36
C      15.26       0.55      26.13
C      16.07       0.49      24.95
C      17.07       1.48      24.76
C      17.37       2.45      25.78
C      16.55       2.48      26.95
C      15.50       1.56      27.08
C       6.84      26.28       0.21
C       5.80      25.37      39.12
C       4.54      25.46       0.55
C       4.27      26.55       1.42
C       5.31      27.49       1.69
C       6.60      27.36       1.10
C       8.05      26.13      38.64
C       8.86      24.95      38.70
C       9.87      24.77      37.71
C      10.16      25.78      36.75
C       9.34      26.95      36.71
C       8.28      27.08      37.63
C      21.26      12.91      38.99
C      20.22      13.82       0.08
C      18.96      13.73      38.65
C      18.69      12.65      37.77
C      19.73      11.70      37.50
C      21.02      11.83      38.09
C      22.47      13.06       0.55
C      23.27      14.24       0.49
C      24.28      14.43       1.48
C      24.57      13.41       2.45
C      23.76      12.25       2.48
C      22.70      12.11       1.56
C      24.33       9.05       4.33
C      23.88       9.26       5.65
C      24.22       8.37       6.69
C      25.01       7.24       6.42
C      25.09       7.87       4.10
C      25.44       6.33       7.43
C      26.00       5.07       7.15
C      26.43       4.24       8.20
C      26.32       4.65       9.55
C      25.77       5.94       9.78
C      26.75       3.84      10.63
C      24.07       9.97       3.27
C       9.92      30.15      34.86
C       9.46      29.94      33.54
C       9.80      30.82      32.50
C      10.60      31.96      32.78
C      10.68      31.32      35.09
C      11.03      32.86      31.76
C      11.59      34.12      32.05
C      12.02      34.95      30.99
C      11.90      34.54      29.64
C      11.35      33.26      29.41
C      12.33      35.35      28.56
C       9.65      29.23      35.92
C       2.72      34.87       9.05
C       2.26      33.54       9.26
C       2.60      32.50       8.37
C       3.40      32.78       7.24
C       3.48      35.09       7.88
C       3.82      31.76       6.34
C       4.39      32.04       5.08
C       4.81      30.99       4.25
C       4.69      29.64       4.66
C       4.13      29.41       5.94
C       5.11      28.55       3.84
C       2.45      35.93       9.97
C      17.13       4.33      30.14
C      16.67       5.65      29.93
C      17.01       6.69      30.82
C      17.81       6.42      31.95
C      17.89       4.10      31.32
C      18.24       7.43      32.85
C      18.81       7.15      34.12
C      19.23       8.21      34.95
C      19.11       9.56      34.53
C      18.55       9.78      33.26
C      19.53      10.65      35.35
C      16.87       3.27      29.22
C      18.63      38.27      21.08
C      19.82      38.77      21.65
C      21.00      38.82      20.88
C      20.99      38.36      19.54
C      18.67      37.79      19.76
C      22.11      38.51      18.66
C      22.18      37.85      17.41
C      23.25      38.12      16.54
C      24.25      39.07      16.88
C      24.15       0.48      18.16
C      25.31       0.23      15.98
C      17.48      38.39      21.69
C       4.21       0.92      18.11
C       5.40       0.43      17.55
C       6.58       0.38      18.32
C       6.57       0.83      19.66
C       4.25       1.40      19.44
C       7.69       0.69      20.53
C       7.76       1.35      21.78
C       8.83       1.07      22.66
C       9.83       0.13      22.32
C       9.73      38.71      21.04
C      10.89      38.96      23.21
C       3.06       0.80      17.51
C      25.84      18.11      38.27
C      27.03      17.55      38.76
C      28.21      18.31      38.81
C      28.20      19.65      38.36
C      25.87      19.44      37.79
C       0.48      20.53      38.51
C       0.56      21.78      37.85
C       1.62      22.65      38.12
C       2.62      22.31      39.07
C       2.52      21.03       0.48
C       3.68      23.21       0.23
C      24.69      17.50      38.39
C      11.42      21.08       0.93
C      12.62      21.65       0.43
C      13.80      20.88       0.39
C      13.79      19.54       0.84
C      11.46      19.76       1.40
C      14.90      18.66       0.69
C      14.98      17.42       1.35
C      16.04      16.54       1.07
C      17.04      16.88       0.13
C      16.94      18.16      38.72
C      18.10      15.99      38.96
C      10.27      21.69       0.80
C      28.47       0.21      24.91
C      27.43      39.11      25.82
C      26.17       0.54      25.73
C      25.90       1.42      24.64
C      26.94       1.69      23.70
C      28.23       1.10      23.83
C       0.85      38.64      25.07
C       1.65      38.71      26.24
C       2.66      37.71      26.43
C       2.95      36.75      25.42
C       2.14      36.71      24.25
C       1.08      37.63      24.11
C      14.05      38.99      38.28
C      13.01       0.08      37.37
C      11.75      38.65      37.47
C      11.48      37.77      38.55
C      12.52      37.50       0.31
C      13.82      38.09       0.18
C      15.26       0.55      38.13
C      16.07       0.49      36.95
C      17.07       1.48      36.76
C      17.37       2.45      37.78
C      16.55       2.48      38.95
C      15.50       1.56      39.08
C       6.84      26.28      12.21
C       5.80      25.37      11.93
C       4.54      25.46      12.55
C       4.27      26.55      13.42
C       5.31      27.49      13.69
C       6.60      27.36      13.10
C       8.05      26.13      11.46
C       8.86      24.95      11.52
C       9.87      24.77      10.53
C      10.16      25.78       9.56
C       9.34      26.95       9.53
C       8.28      27.08      10.45
C      21.26      12.91      11.80
C      20.22      13.82      12.08
C      18.96      13.73      11.47
C      18.69      12.65      10.58
C      19.73      11.70      10.31
C      21.02      11.83      10.90
C      22.47      13.06      12.55
C      23.27      14.24      12.49
C      24.28      14.43      13.48
C      24.57      13.41      14.45
C      23.76      12.25      14.48
C      22.70      12.11      13.56
C      24.33       9.05      16.33
C      23.88       9.26      17.65
C      24.22       8.37      18.69
C      25.01       7.24      18.42
C      25.09       7.87      16.10
C      25.44       6.33      19.43
C      26.00       5.07      19.15
C      26.43       4.24      20.20
C      26.32       4.65      21.55
C      25.77       5.94      21.78
C      26.75       3.84      22.63
C      24.07       9.97      15.27
C       9.92      30.15       7.68
C       9.46      29.94       6.35
C       9.80      30.82       5.32
C      10.60      31.96       5.59
C      10.68      31.32       7.91
C      11.03      32.86       4.58
C      11.59      34.12       4.86
C      12.02      34.95       3.81
C      11.90      34.54       2.46
C      11.35      33.26       2.23
C      12.33      35.35       1.37
C       9.65      29.23       8.74
C       2.72      34.87      21.05
C       2.26      33.54      21.26
C       2.60      32.50      20.37
C       3.40      32.78      19.24
C       3.48      35.09      19.88
C       3.82      31.76      18.34
C       4.39      32.04      17.08
C       4.81      30.99      16.25
C       4.69      29.64      16.66
C       4.13      29.41      17.94
C       5.11      28.55      15.84
C       2.45      35.93      21.97
C      17.13       4.33       2.96
C      16.67       5.65       2.75
C      17.01       6.69       3.63
C      17.81       6.42       4.77
C      17.89       4.10       4.13
C      18.24       7.43       5.67
C      18.81       7.15       6.93
C      19.23       8.21       7.76
C      19.11       9.56       7.35
C      18.55       9.78       6.07
C      19.53      10.65       8.16
C      16.87       3.27       2.04
C      18.63      38.27      33.08
C      19.82      38.77      33.65
C      21.00      38.82      32.88
C      20.99      38.36      31.54
C      18.67      37.79      31.76
C      22.11      38.51      30.66
C      22.18      37.85      29.41
C      23.25      38.12      28.54
C      24.25      39.07      28.88
C      24.15       0.48      30.16
C      25.31       0.23      27.98
C      17.48      38.39      33.69
C       4.21       0.92      30.11
C       5.40       0.43      29.55
C       6.58       0.38      30.32
C       6.57       0.83      31.66
C       4.25       1.40      31.44
C       7.69       0.69      32.53
C       7.76       1.35      33.78
C       8.83       1.07      34.66
C       9.83       0.13      34.32
C       9.73      38.71      33.04
C      10.89      38.96      35.21
C       3.06       0.80      29.51
C      25.84      18.11      11.08
C      27.03      17.55      11.58
C      28.21      18.31      11.63
C      28.20      19.65      11.17
C      25.87      19.44      10.61
C       0.48      20.53      11.32
C       0.56      21.78      10.66
C       1.62      22.65      10.94
C       2.62      22.31      11.88
C       2.52      21.03      12.48
C       3.68      23.21      12.23
C      24.69      17.50      11.21
C      11.42      21.08      12.93
C      12.62      21.65      12.43
C      13.80      20.88      12.39
C      13.79      19.54      12.84
C      11.46      19.76      13.40
C      14.90      18.66      12.69
C      14.98      17.42      13.35
C      16.04      16.54      13.07
C      17.04      16.88      12.13
C      16.94      18.16      11.53
C      18.10      15.99      11.78
C      10.27      21.69      12.80
C      28.47       0.21      36.91
C      27.43      39.11      37.82
C      26.17       0.54      37.73
C      25.90       1.42      36.64
C      26.94       1.69      35.70
C      28.23       1.10      35.83
C       0.85      38.64      37.07
C       1.65      38.71      38.24
C       2.66      37.71      38.43
C       2.95      36.75      37.42
C       2.14      36.71      36.25
C       1.08      37.63      36.11
C      14.05      38.99      11.10
C      13.01       0.08      10.19
C      11.75      38.65      10.28
C      11.48      37.77      11.37
C      12.52      37.50      12.31
C      13.82      38.09      12.18
C      15.26       0.55      10.94
C      16.07       0.49       9.76
C      17.07       1.48       9.58
C      17.37       2.45      10.59
C      16.55       2.48      11.76
C      15.50       1.56      11.90
C       6.84      26.28      24.21
C       5.80      25.37      23.93
C       4.54      25.46      24.55
C       4.27      26.55      25.42
C       5.31      27.49      25.69
C       6.60      27.36      25.10
C       8.05      26.13      23.46
C       8.86      24.95      23.52
C       9.87      24.77      22.53
C      10.16      25.78      21.56
C       9.34      26.95      21.53
C       8.28      27.08      22.45
C      21.26      12.91      23.80
C      20.22      13.82      24.08
C      18.96      13.73      23.47
C      18.69      12.65      22.58
C      19.73      11.70      22.31
C      21.02      11.83      22.90
C      22.47      13.06      24.55
C      23.27      14.24      24.49
C      24.28      14.43      25.48
C      24.57      13.41      26.45
C      23.76      12.25      26.48
C      22.70      12.11      25.56
C      24.33       9.05      28.33
C      23.88       9.26      29.65
C      24.22       8.37      30.69
C      25.01       7.24      30.42
C      25.09       7.87      28.10
C      25.44       6.33      31.43
C      26.00       5.07      31.15
C      26.43       4.24      32.20
C      26.32       4.65      33.55
C      25.77       5.94      33.78
C      26.75       3.84      34.63
C      24.07       9.97      27.27
C       9.92      30.15      19.68
C       9.46      29.94      18.35
C       9.80      30.82      17.32
C      10.60      31.96      17.59
C      10.68      31.32      19.91
C      11.03      32.86      16.58
C      11.59      34.12      16.86
C      12.02      34.95      15.81
C      11.90      34.54      14.46
C      11.35      33.26      14.23
C      12.33      35.35      13.37
C       9.65      29.23      20.74
C       2.72      34.87      33.05
C       2.26      33.54      33.26
C       2.60      32.50      32.37
C       3.40      32.78      31.24
C       3.48      35.09      31.88
C       3.82      31.76      30.34
C       4.39      32.04      29.08
C       4.81      30.99      28.25
C       4.69      29.64      28.66
C       4.13      29.41      29.94
C       5.11      28.55      27.84
C       2.45      35.93      33.97
C      17.13       4.33      14.96
C      16.67       5.65      14.75
C      17.01       6.69      15.63
C      17.81       6.42      16.77
C      17.89       4.10      16.13
C      18.24       7.43      17.67
C      18.81       7.15      18.93
C      19.23       8.21      19.76
C      19.11       9.56      19.35
C      18.55       9.78      18.07
C      19.53      10.65      20.16
C      16.87       3.27      14.04
C      18.63      38.27       5.90
C      19.82      38.77       6.46
C      21.00      38.82       5.69
C      20.99      38.36       4.35
C      18.67      37.79       4.57
C      22.11      38.51       3.47
C      22.18      37.85       2.23
C      23.25      38.12       1.35
C      24.25      39.07       1.69
C      24.15       0.48       2.97
C      25.31       0.23       0.80
C      17.48      38.39       6.50
C       4.21       0.92       2.93
C       5.40       0.43       2.36
C       6.58       0.38       3.13
C       6.57       0.83       4.47
C       4.25       1.40       4.26
C       7.69       0.69       5.35
C       7.76       1.35       6.60
C       8.83       1.07       7.47
C       9.83       0.13       7.13
C       9.73      38.71       5.85
C      10.89      38.96       8.03
C       3.06       0.80       2.32
C      25.84      18.11      23.08
C      27.03      17.55      23.58
C      28.21      18.31      23.63
C      28.20      19.65      23.17
C      25.87      19.44      22.61
C       0.48      20.53      23.32
C       0.56      21.78      22.66
C       1.62      22.65      22.94
C       2.62      22.31      23.88
C       2.52      21.03      24.48
C       3.68      23.21      24.23
C      24.69      17.50      23.21
C      11.42      21.08      24.93
C      12.62      21.65      24.43
C      13.80      20.88      24.39
C      13.79      19.54      24.84
C      11.46      19.76      25.40
C      14.90      18.66      24.69
C      14.98      17.42      25.35
C      16.04      16.54      25.07
C      17.04      16.88      24.13
C      16.94      18.16      23.53
C      18.10      15.99      23.78
C      10.27      21.69      24.80
N      24.68       2.02      12.52
N       4.01      35.89      13.52
N       0.39       1.40      10.94
N       1.44       0.53      15.16
N       2.25      35.72      11.31
N       3.30      37.71      15.62
N      26.67       2.48      10.61
N      25.19       0.16      14.62
N      10.26      37.18      26.67
N      18.43       3.30      25.68
N      14.81      37.79      28.25
N      15.86      38.67      24.04
N      16.67       3.47      27.89
N      17.71       1.49      23.57
N      12.26      36.71      28.58
N      10.78      39.03      24.57
N       3.05      26.67       2.02
N      11.22      25.68      35.89
N       7.60      28.25       1.40
N       8.65      24.04       0.53
N       9.46      27.89      35.72
N      10.51      23.58      37.71
N       5.04      28.58       2.48
N       3.57      24.57       0.16
N      17.47      12.53      37.17
N      25.63      13.51       3.30
N      22.01      10.94      37.79
N      23.07      15.15      38.67
N      23.87      11.30       3.47
N      24.92      15.62       1.48
N      19.46      10.62      36.71
N      17.99      14.63      39.03
N      25.40       7.04       5.13
N      25.36       6.70       8.74
N      10.99      32.15      34.07
N      10.94      32.49      30.45
N       3.79      34.07       7.05
N       3.73      30.45       6.70
N      18.21       5.13      32.14
N      18.14       8.74      32.49
N      19.82      37.87      19.05
N      23.10       0.20      18.97
N       5.40       1.32      20.15
N       8.68      39.00      20.23
N      27.03      20.14      37.87
N       1.47      20.22       0.20
N      12.61      19.05       1.33
N      15.89      18.97      39.00
N      24.68       2.02      24.52
N       4.01      35.89      25.52
N       0.39       1.40      22.94
N       1.44       0.53      27.16
N       2.25      35.72      23.31
N       3.30      37.71      27.62
N      26.67       2.48      22.61
N      25.19       0.16      26.62
N      10.26      37.18      38.67
N      18.43       3.30      37.68
N      14.81      37.79       1.07
N      15.86      38.67      36.04
N      16.67       3.47       0.70
N      17.71       1.49      35.57
N      12.26      36.71       1.39
N      10.78      39.03      36.57
N       3.05      26.67      14.02
N      11.22      25.68       8.70
N       7.60      28.25      13.40
N       8.65      24.04      12.53
N       9.46      27.89       8.53
N      10.51      23.58      10.53
N       5.04      28.58      14.48
N       3.57      24.57      12.16
N      17.47      12.53       9.99
N      25.63      13.51      15.30
N      22.01      10.94      10.60
N      23.07      15.15      11.48
N      23.87      11.30      15.47
N      24.92      15.62      13.48
N      19.46      10.62       9.52
N      17.99      14.63      11.85
N      25.40       7.04      17.13
N      25.36       6.70      20.74
N      10.99      32.15       6.88
N      10.94      32.49       3.27
N       3.79      34.07      19.05
N       3.73      30.45      18.70
N      18.21       5.13       4.96
N      18.14       8.74       5.30
N      19.82      37.87      31.05
N      23.10       0.20      30.97
N       5.40       1.32      32.15
N       8.68      39.00      32.23
N      27.03      20.14      10.68
N       1.47      20.22      12.20
N      12.61      19.05      13.33
N      15.89      18.97      11.82
N      24.68       2.02      36.52
N       4.01      35.89      37.52
N       0.39       1.40      34.94
N       1.44       0.53      39.16
N       2.25      35.72      35.31
N       3.30      37.71       0.44
N      26.67       2.48      34.61
N      25.19       0.16      38.62
N      10.26      37.18      11.49
N      18.43       3.30      10.49
N      14.81      37.79      13.07
N      15.86      38.67       8.85
N      16.67       3.47      12.70
N      17.71       1.49       8.39
N      12.26      36.71      13.39
N      10.78      39.03       9.39
N       3.05      26.67      26.02
N      11.22      25.68      20.70
N       7.60      28.25      25.40
N       8.65      24.04      24.53
N       9.46      27.89      20.53
N      10.51      23.58      22.53
N       5.04      28.58      26.48
N       3.57      24.57      24.16
N      17.47      12.53      21.99
N      25.63      13.51      27.30
N      22.01      10.94      22.60
N      23.07      15.15      23.48
N      23.87      11.30      27.47
N      24.92      15.62      25.48
N      19.46      10.62      21.52
N      17.99      14.63      23.85
N      25.40       7.04      29.13
N      25.36       6.70      32.74
N      10.99      32.15      18.88
N      10.94      32.49      15.27
N       3.79      34.07      31.05
N       3.73      30.45      30.70
N      18.21       5.13      16.96
N      18.14       8.74      17.30
N      19.82      37.87       3.86
N      23.10       0.20       3.78
N       5.40       1.32       4.96
N       8.68      39.00       5.04
N      27.03      20.14      22.68
N       1.47      20.22      24.20
N      12.61      19.05      25.33
N      15.89      18.97      23.82
O      24.17       9.52       2.00
O      27.18       4.45      11.76
O       9.75      29.68      37.20
O      12.75      34.74      27.42
O       2.55      37.20       9.52
O       5.52      27.41       4.46
O      16.97       1.99      29.67
O      19.93      11.79      34.73
O      16.31      38.61      22.10
O      26.43       0.79      16.51
O       1.89       0.58      17.09
O      12.01      38.41      22.68
O      23.51      17.09      38.61
O       4.80      22.68       0.79
O       9.10      22.11       0.58
O      19.22      16.52      38.41
O      24.17       9.52      14.00
O      27.18       4.45      23.76
O       9.75      29.68      10.01
O      12.75      34.74       0.24
O       2.55      37.20      21.52
O       5.52      27.41      16.46
O      16.97       1.99       2.49
O      19.93      11.79       7.55
O      16.31      38.61      34.10
O      26.43       0.79      28.51
O       1.89       0.58      29.09
O      12.01      38.41      34.68
O      23.51      17.09      11.43
O       4.80      22.68      12.79
O       9.10      22.11      12.58
O      19.22      16.52      11.23
O      24.17       9.52      26.00
O      27.18       4.45      35.76
O       9.75      29.68      22.01
O      12.75      34.74      12.24
O       2.55      37.20      33.52
O       5.52      27.41      28.46
O      16.97       1.99      14.49
O      19.93      11.79      19.55
O      16.31      38.61       6.92
O      26.43       0.79       1.32
O       1.89       0.58       1.91
O      12.01      38.41       7.50
O      23.51      17.09      23.43
O       4.80      22.68      24.79
O       9.10      22.11      24.58
O      19.22      16.52      23.23
