19

Fe       7.99      13.44       7.78
N       9.52      15.02       7.77
N       7.37      14.06       9.65
N       6.51      14.97      10.16
N       6.80      14.71       6.46
N       6.46      11.85       7.79
N       8.61      12.82       5.91
N       9.48      11.90       5.41
N       9.19      12.17       9.10
C      10.60      14.98       6.95
C       6.68      10.70       7.11
C       7.99      13.43       4.86
C       7.03      14.48       5.13
C      10.05      11.20       8.76
C       5.39      11.90       8.61
C       9.30      16.18       8.45
C       7.99      13.45      10.70
C       8.96      12.40      10.43
C       5.94      15.68       6.81
