19

N       5.92      -2.55       7.39
N       6.78      -1.66       7.92
Fe       5.29      -4.48       7.78
N       6.48      -5.00       9.54
C       6.25      -6.26      10.00
C       3.24      -4.75       5.35
N       6.82      -5.27       6.41
N       4.66      -6.41       8.17
N       3.80      -7.30       7.64
N       4.10      -3.96       6.02
C       7.89      -4.54       6.04
C       3.99      -2.53       9.82
C       5.30      -1.94       6.33
C       4.34      -2.70       5.56
C       7.35      -4.21      10.21
C       2.69      -4.42       9.53
C       6.59      -6.43       5.74
N       3.76      -3.69       9.16
C       5.28      -7.02       9.23
