20

H      -1.34       7.43       7.26
H       1.34       8.83       3.82
C      -1.50      10.04       7.14
C      -0.75       9.06       6.26
C       0.05       9.50       5.20
C      -0.79       7.72       6.57
C       0.10      10.94       4.71
C       1.50       6.22       3.94
C       0.75       7.20       4.81
C      -0.05       6.77       5.88
C       0.79       8.55       4.51
C      -0.10       5.33       6.37
O      -1.15      11.25       7.12
O      -2.41       9.60       7.88
O       1.10      11.62       5.04
O      -0.81      11.32       3.94
O       1.15       5.01       3.96
O       2.41       6.66       3.20
O      -1.10       4.64       6.04
O       0.81       4.95       7.14
