164

Ag      14.13      13.17      18.20
Ag      14.43       5.55      15.48
Ag      10.38       9.73       7.90
Ag       8.32       6.30      13.23
Ag      14.37       3.15      10.95
Ag      14.48       5.40      12.51
Ag      11.12       8.41      11.36
Ag       8.32       1.07       1.36
Ag       8.06       8.68       4.09
Ag      12.13       4.47      11.64
Ag      14.17       7.96       6.33
Ag       8.14      11.07       8.58
Ag       8.01       8.82       7.04
Ag      11.37       5.83       8.20
H      15.49      11.56      12.02
H      17.51      13.03      12.18
H      10.54       0.75       8.19
H      12.58       2.16       8.51
H       7.95       6.38      16.11
H       9.20       1.57      15.29
H       5.45       6.27       8.28
H      11.29       3.14      18.53
H      15.73       4.88       8.56
H      17.61       6.17      19.29
H      16.66       8.44      18.84
H       9.74       3.55      13.87
H      18.07       2.81      18.66
H      11.86       5.19      17.26
H       7.13       4.20      11.68
H      16.92       3.70      16.65
H       9.46       4.20       3.28
H       8.34       6.38       2.94
H       8.94       5.38      18.16
H       5.00       2.90      11.83
H       7.00       2.69       7.51
H       4.99       1.22       7.34
H      11.93      13.51      11.35
H       9.90      12.11      11.03
H      14.55       7.89       3.46
H      13.25      12.67       4.28
H      17.03       7.99      11.27
H      11.20      11.08       1.02
H       6.75       9.35      10.98
H       4.87       8.07       0.24
H       5.83       5.81       0.70
H      12.72      10.69       5.69
H       4.43      11.46       0.90
H      10.64       9.02       2.28
H      15.37      10.06       7.86
H       5.57      10.57       2.92
H      13.02      10.02      16.25
H      14.13       7.84      16.59
H      13.56       8.88       1.39
H      17.50      11.35       7.72
C      15.73      12.27      11.23
C      16.85      13.07      11.31
C      14.90      12.36      10.09
C      15.27      13.26       9.08
C      12.29       1.42       9.26
C       7.42       5.58      16.64
C      17.90       5.63      14.97
C       9.79       2.40      15.69
C       5.40       5.52       9.07
C      10.96       3.26      17.50
C       4.25       4.75       9.23
C      10.88       5.00       0.44
C       6.45       5.36       9.99
C      18.51       5.11      16.19
C       8.83       8.13       0.87
C       7.67       6.16       9.89
C      11.20       5.76      14.74
C      10.34       6.26       0.19
C      10.08       3.51      14.91
C      13.73      11.50       9.96
C       9.41       6.80       1.09
C      18.54       3.60      18.07
C      11.28       4.40      16.79
C       6.31       4.40      10.99
C      17.89       4.10      16.94
C      10.84       4.55      15.47
C       9.69       4.80       2.40
C       9.07       6.03       2.21
C       7.98       5.02      17.79
C       5.14       3.65      11.06
C       6.76       1.99       8.30
C       5.63       1.18       8.22
C       7.57       1.91       9.44
C       7.20       1.00      10.45
C      10.19      12.84      10.27
C      15.07       8.69       2.92
C       4.59       8.63       4.59
C      12.67      11.84       3.87
C      17.09       8.73      10.47
C      11.52      10.96       2.05
C      18.24       9.50      10.32
C      11.61       9.24      19.09
C      16.03       8.89       9.56
C       3.98       9.17       3.38
C      13.65       6.11      18.68
C      14.82       8.09       9.66
C      11.28       8.46       4.81
C      12.14       7.98      19.35
C      12.39      10.72       4.65
C       8.75       2.75       9.59
C      13.07       7.43      18.45
C       3.96      10.67       1.49
C      11.20       9.82       2.76
C      16.18       9.86       8.56
C       4.60      10.18       2.63
C      11.64       9.67       4.09
C      12.79       9.44      17.13
C      13.40       8.20      17.32
C      14.52       9.24       1.77
C      17.35      10.59       8.49
N      10.22       2.26      16.96
N      16.46       6.17      13.46
N      16.58       5.62      14.69
N       6.23       6.18      13.92
N      12.39       6.39      14.89
N      12.35       7.48      14.11
N       8.41       6.57      10.95
N       9.38       7.15       9.09
N       7.76       9.98       1.23
N      17.64       6.50      12.99
N      11.17       7.53      13.51
N       8.25       6.52       8.73
N      12.15      10.17      10.45
N      13.12      11.21       8.78
N       7.41       4.03      18.50
N      13.08       1.34      10.35
N      10.58       4.26       1.54
N       8.08       8.81       1.79
N      16.44       3.82      10.20
N      10.43       6.45      13.88
N       9.47       7.19      10.41
N      13.14      10.87      11.00
N      15.02      10.48      19.30
N       8.31       9.99       0.01
N      12.15      10.37       9.11
N      12.25      11.97       2.59
N       6.03       8.05       6.09
N       5.91       8.62       4.86
N      16.25       8.07       5.63
N      10.10       7.83       4.66
N      10.15       6.73       5.44
N      14.07       7.69       8.61
N      13.11       7.09      10.47
N      14.72       4.26      18.34
N       4.84       7.72       6.55
N      11.32       6.70       6.05
N      14.25       7.72      10.82
N      10.34       4.07       9.11
N       9.35       3.03      10.77
N      15.10      10.23       1.06
N       9.40      12.91       9.17
N      11.90       9.97      17.99
N      14.41       5.43      17.78
N       6.05      10.42       9.34
N      12.06       7.78       5.67
N      13.01       7.06       9.15
N       9.34       3.39       8.55
N       7.44       3.76       0.25
N       8.13       2.63       0.00
N      10.34       3.87      10.45
