16

O      12.98       4.75       2.11
C      11.99       2.76       6.61
H      15.03       3.61       5.32
C      13.16       3.64       4.22
O      15.00       4.02       2.72
C      13.96       3.43       5.35
C      13.77       4.16       2.96
H      11.17       3.49       3.38
O      12.03       2.48       8.98
C      11.78       3.37       4.27
H      13.99       2.88       7.43
H      10.14       2.69       5.52
C      11.34       2.35       7.89
O      10.15       1.94       7.90
C      11.21       2.91       5.45
C      13.37       3.01       6.55
