16

C       8.46       9.57      16.32
C       9.63      10.55      13.97
H      11.42      10.83      15.17
C       7.81       9.13      17.59
C      10.38      10.49      15.16
C       7.74       9.57      15.12
H       7.75      10.08      13.03
O       9.42      11.63      11.86
O       6.67       8.58      17.57
C      10.23      11.15      12.75
H       6.72       9.19      15.13
H      10.38       9.99      17.25
C       8.31      10.07      13.96
O       8.43       9.35      18.70
C       9.80      10.01      16.33
O      11.48      11.18      12.57
