16

O       4.74       2.08       7.61
O       2.68       2.53       6.89
C       3.78       3.22       4.30
C       4.36       3.70       3.13
C       6.35       4.58       1.87
C       5.70       4.14       3.14
H       2.75       2.88       4.29
H       7.45       4.52       4.34
C       6.43       4.14       4.34
H       6.41       3.63       6.43
O       5.73       4.36       0.76
C       4.53       3.15       5.49
C       5.85       3.63       5.50
C       3.93       2.56       6.72
O       7.49       5.12       1.89
H       3.79       3.72       2.21
