16

O       4.42       6.76      19.42
C       5.16       3.22      19.19
O       1.38       0.40      20.22
C       2.48       0.56      19.60
H       1.45       2.97      20.33
H       6.20       3.27      18.89
H       2.59       5.19      20.28
C       2.48       3.05      20.00
O       3.05      -0.40      18.96
O       6.41       5.79      19.70
H       5.04       1.10      18.87
C       3.12       4.29      19.97
C       4.47       4.38      19.57
C       4.50       1.99      19.18
C       5.17       5.70      19.56
C       3.16       1.89      19.59
