30

C      12.40       2.81       4.78
C      11.67       4.05       4.95
C      10.28       4.05       4.95
C      12.40       7.65       5.68
C      11.67       6.40       5.50
C      10.28       6.40       5.50
C       5.26       7.65       4.78
C       5.99       6.40       4.95
C       7.38       6.40       4.95
C       5.26       2.81       5.68
C       5.99       4.05       5.50
C       7.38       4.05       5.50
C      12.37       5.23       5.23
C       9.59       5.23       5.23
C       5.29       5.23       5.23
C       8.08       5.23       5.23
H       9.76       3.17       4.75
H       9.76       7.29       5.71
H       7.90       7.29       4.75
H       7.90       3.17       5.71
H      13.42       5.23       5.23
H       4.24       5.23       5.23
O      13.54       2.67       5.28
O      11.88       1.87       4.12
O      13.54       7.79       5.17
O      11.88       8.59       6.33
O       4.12       7.79       5.28
O       5.78       8.59       4.12
O       4.12       2.67       5.17
O       5.78       1.87       6.33
