20

H       9.98       8.49       6.27
C      10.08       9.42       5.72
C       9.74      10.61       7.91
H      10.06      12.98       7.40
H      10.62      13.81       6.00
C       9.97      10.64       6.44
H      10.45       8.49       3.82
C      10.10      11.86       5.75
N       9.99      13.10       6.38
C      10.34       9.42       4.36
N      10.39      13.09       3.69
H      10.33      12.98       2.67
H       9.77      13.80       4.07
C      10.68      10.60       2.17
C      10.45      10.63       3.64
O       9.33       9.48       8.42
O       9.95      11.63       8.63
C      10.29      11.86       4.33
O      11.12       9.48       1.67
O      10.45      11.61       1.45
