20

O       6.61       3.34      18.49
O       7.28       1.21      18.72
C       7.62       0.96      14.42
H       7.40      -0.16      17.49
H       7.96      -0.98      16.09
C       7.38       3.40      15.80
C       7.05       2.21      17.99
C       7.28       2.18      16.52
C       7.43       0.96      15.83
C       7.65       3.40      14.44
N       7.73      -0.28      13.78
H       7.74       4.33      13.90
N       7.33      -0.28      16.47
H       7.27       4.33      16.34
H       7.67      -0.16      12.76
H       7.11      -0.99      14.17
C       7.99       2.21      12.25
C       7.76       2.18      13.73
O       8.40       3.34      11.74
O       7.78       1.19      11.53
