57

H      13.60       3.88      16.70
H      13.89       4.95      15.30
H      14.81       5.25      17.72
H      12.66       9.58      18.58
H      11.42       7.89      17.23
H      10.35       0.12      12.69
H      10.97      -1.84      11.26
H      14.54       1.23      12.69
H      14.97      -0.73      11.25
H      13.41       3.36      13.35
H      13.76       2.21      14.69
H      15.89       7.04      19.03
H      10.71       3.87      13.53
H      10.40       4.94      14.93
H       9.47       5.25      12.53
H      11.62       9.59      11.68
C      12.15       3.64      15.12
H      12.87       7.90      13.02
N      14.35       8.40      18.84
H      13.98       0.13      17.55
H       9.78       1.23      17.56
H      10.89       3.36      16.89
N       9.93       8.40      11.42
H       8.38       7.05      11.24
H      10.56       2.20      15.55
H      13.36      -1.83      18.98
N      11.33      -1.41      18.99
H       9.36      -0.74      18.99
N      13.00      -1.41      11.25
O      12.34       5.56      16.56
O      12.00       1.83      13.62
O      11.95       5.56      13.69
O      12.32       1.84      16.63
C      13.03       6.45      17.31
C      13.12       4.50      15.94
C      14.30       6.20      17.84
C      13.11       8.62      18.34
C      12.40       0.82      12.83
C      12.42       7.69      17.59
C      11.38      -0.06      12.41
C      11.72      -1.15      11.63
C      13.72       0.57      12.42
C      13.97      -0.54      11.63
C      12.97       2.76      14.16
C      14.91       7.19      18.59
C      11.26       6.45      12.94
C      11.18       4.49      14.30
C       9.98       6.21      12.42
C      11.17       8.63      11.91
C      11.93       0.82      17.41
C      11.86       7.69      12.66
C      12.94      -0.05      17.83
C      12.61      -1.15      18.61
C      10.61       0.57      17.82
C      10.36      -0.54      18.61
C      11.34       2.76      16.08
C       9.37       7.20      11.66
