20

H       2.42      -2.67       6.88
H       5.96       0.02       5.38
H       6.31      -0.50       3.73
H       5.11      -2.33       2.75
H       1.57      -5.02       4.25
H       1.22      -4.50       5.89
C       4.28      -0.86       7.11
C       4.04      -1.67       5.91
C       3.00      -2.61       5.96
C       4.85      -1.55       4.74
C       3.25      -4.14       2.51
C       3.49      -3.33       3.71
C       4.53      -2.39       3.66
C       2.68      -3.45       4.88
N       5.93      -0.70       4.66
N       1.60      -4.30       4.96
O       3.61      -1.03       8.20
O       5.23       0.04       7.12
O       3.92      -3.97       1.42
O       2.30      -5.04       2.50
