632

H      27.71      19.79      51.11
H      28.75      21.90      50.69
H      28.81      26.77      50.72
H      27.89      28.89      51.28
H      24.33      27.03      52.53
H      24.26      21.76      52.49
H      24.78      24.37      49.43
H      20.59      24.20      49.13
H      20.41      24.33      51.49
H      26.81      24.26      54.41
H      22.20      24.36      55.92
H      23.93      24.19      57.49
H      28.78      24.34      51.56
H      28.04      24.35      49.95
H      21.69      25.33      53.56
H      21.66      23.55      53.58
H      27.70      28.99       9.01
H      28.74      26.88       9.43
H      28.80      22.01       9.40
H      27.88      19.90       8.84
H      24.32      21.75       7.60
H      24.25      27.02       7.63
H      24.72      24.42      10.67
H      20.53      24.55      10.90
H      20.39      24.44       8.53
H      26.87      24.38       5.83
H      22.33      24.42       4.11
H      24.13      24.49       2.63
H      28.76      24.44       8.56
H      28.04      24.44      10.18
H      21.71      23.49       6.47
H      21.70      25.26       6.46
H      26.76       3.42       8.85
H      25.84       5.53       9.41
H      25.89      10.40       9.44
H      26.93      12.51       9.03
H       0.12      10.55       7.64
H       0.06       5.28       7.61
H      29.86       7.91      10.70
H       3.80       7.73      11.01
H       3.98       7.85       8.65
H      27.83       7.80       5.72
H       2.19       7.86       4.22
H       0.46       7.69       2.65
H      25.87       7.96       8.57
H      26.60       7.96      10.19
H       2.70       8.85       6.58
H       2.73       7.07       6.56
H      26.76      12.40      51.29
H      25.84      10.29      50.73
H      25.90       5.41      50.71
H      26.94       3.30      51.12
H       0.13       5.27      52.50
H       0.07      10.54      52.54
H      29.92       7.92      49.46
H       3.86       8.06      49.23
H       4.00       7.94      51.60
H      27.78       7.87      54.30
H       2.05       7.95      56.02
H       0.25       8.03      57.50
H      25.88       7.86      51.58
H      26.61       7.86      49.96
H       2.68       6.99      53.67
H       2.69       8.76      53.67
H      12.58       3.30      20.42
H      13.62       5.41      20.00
H      13.68      10.29      20.03
H      12.76      12.40      20.58
H       9.21      10.54      21.86
H       9.14       5.27      21.80
H       9.67       7.88      18.76
H       5.48       8.08      18.43
H       5.29       8.00      20.80
H      11.68       7.77      23.73
H       7.08       7.86      25.24
H       8.81       7.71      26.81
H      13.65       7.85      20.87
H      12.91       7.86      19.26
H       6.56       8.81      22.89
H       6.54       7.04      22.87
H      12.58      12.51      39.70
H      13.61      10.40      40.12
H      13.67       5.53      40.09
H      12.75       3.41      39.53
H       9.19       5.27      38.28
H       9.13      10.55      38.32
H       9.61       7.92      41.35
H       5.41       7.76      41.61
H       5.26       7.84      39.23
H      11.73       7.90      36.51
H       7.20       7.95      34.80
H       9.00       7.99      33.31
H      13.64       7.96      39.25
H      12.91       7.96      40.86
H       6.57       7.04      37.14
H       6.58       8.81      37.17
H      11.63      19.90      39.54
H      10.71      22.01      40.10
H      10.77      26.88      40.14
H      11.81      28.99      39.72
H      15.25      27.02      38.32
H      15.19      21.75      38.30
H      14.72      24.39      41.38
H      18.91      24.57      41.71
H      19.10      24.49      39.34
H      12.70      24.28      36.41
H      17.31      24.33      34.90
H      15.58      24.18      33.33
H      10.74      24.44      39.26
H      11.48      24.44      40.87
H      17.83      25.31      37.24
H      17.85      23.53      37.26
H      11.64      28.88      20.61
H      10.72      26.77      20.05
H      10.78      21.90      20.01
H      11.81      19.79      20.43
H      15.26      21.75      21.82
H      15.19      27.03      21.85
H      14.78      24.38      18.78
H      18.98      24.24      18.53
H      19.13      24.32      20.91
H      12.65      24.36      23.62
H      17.18      24.45      25.33
H      15.38      24.51      26.82
H      10.75      24.34      20.89
H      11.48      24.34      19.27
H      17.82      23.51      22.99
H      17.81      25.29      22.97
H      25.32      24.07       0.95
H      24.86      24.32      60.06
H      28.96      24.63      59.24
H       0.26      24.45      60.98
H      30.12      24.33       1.19
H      25.98      25.74      58.12
H      28.51      24.36       2.66
H      29.32       7.58      59.18
H      29.78       7.83       0.07
H      25.69       8.15       0.90
H      24.13       7.97      60.54
H      24.52       7.85      58.95
H      28.69       9.25       2.00
H      26.12       7.88      57.48
H      10.19       7.59      31.62
H       9.74       7.84      29.35
H      13.85       8.16      28.55
H      15.39       7.97      30.29
H      14.98       7.84      31.88
H      10.88       9.27      27.42
H      13.38       7.86      33.34
H      14.19      24.06      28.51
H      14.65      24.31      30.78
H      10.55      24.64      31.59
H       9.00      24.46      29.85
H       9.40      24.33      28.26
H      13.52      25.75      32.72
H      11.00      24.35      26.79
H      27.28      30.91      50.50
H      28.96      32.59      50.39
H      27.19       1.65      53.61
H      25.31       0.74      54.67
H      24.69      32.22      54.32
H      30.20       1.21      52.14
H      24.40      30.92      52.45
H      27.28      17.88       9.63
H      28.95      16.19       9.75
H      27.19      14.16       6.53
H      25.31      15.07       5.46
H      24.69      16.56       5.81
H      30.19      14.60       8.00
H      24.40      17.86       7.68
H      27.36       1.39       9.63
H      25.68      32.68       9.75
H      27.45      30.65       6.53
H      29.34      31.56       5.47
H      29.95       0.08       5.82
H      24.45      31.08       7.99
H      30.24       1.39       7.68
H      27.36      14.42      50.51
H      25.69      16.11      50.39
H      27.46      18.14      53.61
H      29.33      17.22      54.68
H      29.95      15.73      54.32
H      24.45      17.70      52.14
H      30.24      14.44      52.45
H      12.16      14.42      19.81
H      13.83      16.11      19.70
H      12.06      18.13      22.92
H      10.18      17.22      23.98
H       9.56      15.73      23.62
H      15.07      17.70      21.45
H       9.27      14.43      21.76
H      12.15       1.39      40.32
H      13.83      32.68      40.44
H      12.06      30.64      37.22
H      10.18      31.56      36.15
H       9.57       0.08      36.51
H      15.06      31.08      38.70
H       9.27       1.38      38.37
H      12.23      17.87      40.32
H      10.56      16.19      40.44
H      12.32      14.17      37.22
H      14.21      15.08      36.15
H      14.82      16.56      36.51
H       9.32      14.60      38.68
H      15.12      17.86      38.38
H      12.24      30.91      19.82
H      10.56      32.59      19.69
H      12.33       1.65      22.92
H      14.20       0.74      23.98
H      14.82      32.22      23.63
H       9.32       1.21      21.45
H      15.12      30.92      21.76
H      19.23      23.04      43.50
H      21.39      22.95      44.48
H      20.23      25.75      47.38
H      18.02      26.56      47.41
H      16.92      26.22      46.23
H      23.03      24.24      45.84
H      16.39      24.34      44.97
H      19.28      25.69      16.68
H      21.42      25.79      15.65
H      20.18      23.07      12.71
H      17.97      22.26      12.72
H      16.90      22.57      13.94
H      23.03      24.56      14.21
H      16.40      24.42      15.25
H       5.16       6.55      16.63
H       3.00       6.47      15.66
H       4.15       9.28      12.76
H       6.37      10.07      12.73
H       7.47       9.74      13.91
H       1.35       7.76      14.29
H       8.00       7.85      15.17
H       5.10       9.21      43.46
H       2.96       9.31      44.48
H       4.21       6.58      47.43
H       6.42       5.78      47.41
H       7.49       6.09      46.19
H       1.36       8.08      45.93
H       7.99       7.94      44.89
C      24.80      24.37      53.72
C      23.46      24.40      54.20
C      22.50      24.40      51.88
C      23.80      24.39      51.31
C      23.87      24.37      49.89
C      22.71      24.33      49.06
C      21.44      24.29      49.68
C      21.34      24.36      51.07
C      23.17      24.36      55.58
C      24.20      24.27      56.51
C      25.55      24.27      56.11
C      25.83      24.30      54.71
C      25.80      23.09      51.89
C      27.12      23.10      51.35
C      27.14      25.62      51.35
C      25.83      25.66      51.90
C      27.86      26.81      51.11
C      27.32      28.06      51.43
C      26.01      28.16      51.94
C      25.28      26.96      52.16
C      25.22      21.81      52.13
C      25.90      20.59      51.86
C      27.21      20.65      51.35
C      27.81      21.89      51.09
C      25.06      24.38      52.21
C      27.83      24.35      51.02
C      22.27      24.43      53.33
C      24.82      24.39       6.42
C      23.50      24.39       5.89
C      22.48      24.39       8.18
C      23.77      24.39       8.78
C      23.81      24.41      10.20
C      22.64      24.45      11.00
C      21.39      24.47      10.37
C      21.31      24.42       8.97
C      23.28      24.40       4.50
C      24.36      24.43       3.61
C      25.69      24.40       4.08
C      25.90      24.39       5.48
C      25.79      25.70       8.24
C      27.11      25.69       8.78
C      27.12      23.16       8.79
C      25.81      23.12       8.24
C      27.85      21.97       9.02
C      27.31      20.72       8.69
C      26.00      20.62       8.19
C      25.27      21.82       7.98
C      25.21      26.98       8.00
C      25.89      28.20       8.26
C      27.20      28.14       8.77
C      27.80      26.90       9.03
C      25.05      24.40       7.93
C      27.81      24.43       9.10
C      22.29      24.38       6.72
C      29.85       7.91       6.42
C       0.93       7.93       5.94
C       1.89       7.93       8.26
C       0.58       7.92       8.82
C       0.52       7.91      10.25
C       1.68       7.86      11.08
C       2.94       7.82      10.46
C       3.04       7.88       9.07
C       1.22       7.88       4.56
C       0.19       7.78       3.63
C      29.09       7.79       4.02
C      28.81       7.84       5.42
C      28.82       6.64       8.25
C      27.51       6.69       8.80
C      27.52       9.21       8.78
C      28.83       9.22       8.23
C      26.83      10.42       9.04
C      27.43      11.66       8.79
C      28.74      11.72       8.27
C      29.42      10.50       8.00
C      29.37       5.34       7.99
C      28.64       4.14       8.20
C      27.33       4.24       8.71
C      26.79       5.49       9.03
C      29.59       7.92       7.93
C      26.82       7.95       9.11
C       2.12       7.95       6.81
C      29.82       7.89      53.71
C       0.88       7.89      54.24
C       1.90       7.89      51.95
C       0.61       7.90      51.36
C       0.57       7.92      49.93
C       1.75       7.96      49.13
C       3.00       7.98      49.77
C       3.08       7.93      51.16
C       1.10       7.92      55.64
C       0.02       7.96      56.52
C      28.95       7.92      56.05
C      28.74       7.89      54.65
C      28.83       9.18      51.89
C      27.52       9.13      51.35
C      27.54       6.61      51.35
C      28.85       6.59      51.89
C      26.84       5.40      51.10
C      27.44       4.16      51.36
C      28.75       4.10      51.88
C      29.43       5.31      52.14
C      29.37      10.47      52.16
C      28.64      11.67      51.95
C      27.34      11.57      51.44
C      26.80      10.32      51.11
C      29.60       7.89      52.20
C      26.83       7.86      51.03
C       2.10       7.88      53.41
C       9.67       7.88      23.04
C       8.33       7.90      23.52
C       7.38       7.93      21.19
C       8.68       7.91      20.63
C       8.75       7.91      19.21
C       7.59       7.96      18.38
C       6.33       8.01      18.98
C       6.22       7.97      20.38
C       8.04       7.86      24.89
C       9.07       7.79      25.82
C      10.42       7.79      25.43
C      10.71       7.81      24.03
C      10.68       6.59      21.21
C      11.99       6.61      20.66
C      12.01       9.13      20.66
C      10.70       9.17      21.22
C      12.73      10.32      20.42
C      12.19      11.57      20.74
C      10.88      11.67      21.25
C      10.16      10.47      21.48
C      10.09       5.31      21.44
C      10.77       4.10      21.18
C      12.08       4.16      20.66
C      12.68       5.40      20.40
C       9.93       7.89      21.52
C      12.70       7.86      20.34
C       7.14       7.92      22.64
C       9.69       7.92      37.10
C       8.37       7.92      36.58
C       7.36       7.90      38.87
C       8.65       7.91      39.46
C       8.70       7.90      40.89
C       7.53       7.86      41.69
C       6.27       7.82      41.06
C       6.19       7.86      39.67
C       8.15       7.93      35.19
C       9.23       7.94      34.30
C      10.55       7.91      34.76
C      10.77       7.91      36.16
C      10.67       9.22      38.93
C      11.98       9.21      39.47
C      12.00       6.68      39.48
C      10.69       6.64      38.93
C      12.72       5.49      39.71
C      12.18       4.24      39.39
C      10.87       4.14      38.87
C      10.14       5.34      38.66
C      10.09      10.50      38.68
C      10.77      11.71      38.95
C      12.07      11.66      39.47
C      12.67      10.42      39.72
C       9.92       7.92      38.61
C      12.69       7.95      39.79
C       7.16       7.92      37.41
C      14.72      24.38      37.10
C      16.06      24.39      36.62
C      17.01      24.42      38.94
C      15.71      24.40      39.50
C      15.64      24.41      40.93
C      16.79      24.46      41.76
C      18.06      24.50      41.15
C      18.17      24.47      39.76
C      16.34      24.35      35.24
C      15.32      24.26      34.31
C      13.96      24.27      34.71
C      13.68      24.31      36.11
C      13.69      23.12      38.93
C      12.38      23.16      39.48
C      12.39      25.68      39.46
C      13.70      25.70      38.91
C      11.71      26.90      39.73
C      12.31      28.14      39.48
C      13.61      28.19      38.95
C      14.29      26.98      38.68
C      14.24      21.82      38.67
C      13.51      20.62      38.89
C      12.20      20.72      39.40
C      11.66      21.97      39.72
C      14.46      24.40      38.61
C      11.69      24.43      39.80
C      17.25      24.41      37.49
C      14.69      24.38      23.03
C      16.01      24.40      23.56
C      17.03      24.38      21.26
C      15.74      24.38      20.67
C      15.69      24.37      19.25
C      16.86      24.33      18.44
C      18.12      24.29      19.07
C      18.20      24.34      20.47
C      16.23      24.42      24.95
C      15.16      24.44      25.84
C      13.83      24.40      25.37
C      13.61      24.37      23.97
C      13.70      25.66      21.20
C      12.39      25.62      20.66
C      12.41      23.09      20.67
C      13.72      23.08      21.21
C      11.72      21.88      20.41
C      12.32      20.64      20.67
C      13.62      20.58      21.19
C      14.30      21.80      21.45
C      14.25      26.96      21.47
C      13.51      28.16      21.26
C      12.21      28.06      20.75
C      11.67      26.81      20.42
C      14.47      24.38      21.52
C      11.70      24.35      20.34
C      17.23      24.39      22.72
C      26.12      24.21       0.35
C      25.84      24.31      60.36
C      26.88      24.48      59.42
C      28.20      24.49      59.91
C      28.50      24.39      61.31
C      27.42      24.31       0.88
C      26.53      24.90      58.14
C      27.60      24.34       2.29
C      28.52       7.73      59.78
C      28.80       7.82      61.15
C      27.77       8.00       0.71
C      26.45       8.00       0.22
C      26.15       7.91      60.21
C      27.22       7.83      59.25
C      28.13       8.42       1.99
C      27.04       7.86      57.84
C      10.99       7.72      31.02
C      10.72       7.83      29.65
C      11.76       8.00      28.72
C      13.08       8.01      29.22
C      13.37       7.91      30.61
C      12.29       7.82      31.56
C      11.42       8.43      27.44
C      12.47       7.85      32.97
C      13.40      24.21      29.11
C      13.67      24.31      30.48
C      12.63      24.49      31.41
C      11.31      24.49      30.92
C      11.02      24.39      29.52
C      12.09      24.31      28.57
C      12.98      24.91      32.69
C      11.92      24.33      27.16
C      27.27      31.65      51.21
C      28.23      32.67      51.10
C      28.21       0.82      51.97
C      27.20       0.87      52.95
C      26.24      32.79      53.10
C      26.30      31.64      52.24
C      29.32       1.67      52.03
C      25.33      30.62      52.29
C      27.27      17.14       8.92
C      28.23      16.11       9.03
C      28.21      14.99       8.17
C      27.19      14.95       7.19
C      26.24      15.99       7.03
C      26.30      17.14       7.89
C      29.31      14.15       8.11
C      25.33      18.16       7.84
C      27.37       0.65       8.92
C      26.41      32.60       9.03
C      26.43      31.48       8.17
C      27.45      31.43       7.19
C      28.40      32.48       7.04
C      28.34       0.66       7.90
C      25.32      30.63       8.10
C      29.31       1.68       7.84
C      27.37      15.16      51.21
C      26.41      16.19      51.10
C      26.44      17.31      51.97
C      27.45      17.35      52.94
C      28.40      16.30      53.10
C      28.34      15.16      52.24
C      25.33      18.16      52.02
C      29.31      14.14      52.29
C      12.15      15.16      20.52
C      13.11      16.19      20.41
C      13.08      17.30      21.28
C      12.07      17.35      22.26
C      11.11      16.30      22.41
C      11.17      15.16      21.55
C      14.19      18.15      21.34
C      10.21      14.13      21.60
C      12.14       0.65      39.61
C      13.10      32.59      39.72
C      13.08      31.48      38.86
C      12.06      31.43      37.88
C      11.11      32.48      37.73
C      11.17       0.66      38.58
C      14.19      30.63      38.80
C      10.20       1.68      38.53
C      12.24      17.14      39.62
C      11.28      16.11      39.72
C      11.30      14.99      38.86
C      12.32      14.95      37.88
C      13.27      15.99      37.73
C      13.22      17.14      38.59
C      10.20      14.15      38.79
C      14.18      18.16      38.54
C      12.25      31.64      20.52
C      11.29      32.67      20.41
C      11.31       0.82      21.28
C      12.32       0.87      22.25
C      13.27      32.79      22.41
C      13.22      31.64      21.55
C      10.20       1.67      21.33
C      14.19      30.62      21.60
C      19.42      23.65      44.30
C      20.69      23.57      44.90
C      21.01      24.30      46.07
C      20.01      25.16      46.58
C      18.71      25.25      46.00
C      18.41      24.50      44.81
C      22.33      24.28      46.55
C      17.11      24.43      44.29
C      19.46      25.10      15.86
C      20.71      25.19      15.23
C      21.00      24.48      14.04
C      19.97      23.65      13.52
C      18.70      23.55      14.14
C      18.43      24.27      15.35
C      22.30      24.51      13.53
C      17.14      24.34      15.90
C       4.97       7.17      15.84
C       3.69       7.09      15.23
C       3.38       7.82      14.07
C       4.38       8.67      13.55
C       5.68       8.76      14.14
C       5.98       8.01      15.32
C       2.05       7.81      13.59
C       7.28       7.94      15.84
C       4.93       8.62      44.28
C       3.68       8.70      44.91
C       3.39       8.00      46.10
C       4.41       7.17      46.61
C       5.69       7.07      45.99
C       5.96       7.79      44.79
C       2.08       8.02      46.61
C       7.25       7.86      44.24
N      25.43      29.34      52.15
N      26.41      24.09      57.14
N      22.83      24.30      47.74
N      25.24      19.44      51.99
N      25.42      19.44       7.97
N      26.68      24.37       3.19
N      22.76      24.49      12.32
N      25.23      29.34       8.13
N      29.40      12.86       8.14
N      28.24       7.61       3.00
N       1.55       7.83      12.40
N      29.21       2.96       7.98
N      29.41       2.95      52.00
N      27.95       7.89      56.93
N       1.63       8.00      47.81
N      29.22      12.86      52.16
N      10.30      12.85      21.46
N      11.28       7.60      26.45
N       7.73       7.92      17.05
N      10.11       2.95      21.30
N      10.30       2.96      38.66
N      11.55       7.88      33.88
N       7.65       7.88      43.01
N      10.11      12.86      38.82
N      14.27      29.34      38.83
N      13.11      24.09      33.68
N      16.65      24.42      43.08
N      14.09      19.44      38.67
N      14.28      19.44      21.32
N      12.84      24.37      26.26
N      16.74      24.35      17.12
N      14.09      29.34      21.47
N      29.81      24.41       0.27
N      24.83       7.93      59.87
N      14.69       7.93      30.96
N       9.70      24.42      29.17
N      25.32      32.92      54.10
N      25.32      15.86       6.03
N      29.32      32.34       6.04
N      29.32      16.44      54.10
N      10.20      16.43      23.41
N      10.20      32.34      36.73
N      14.19      15.86      36.73
N      14.19      32.92      23.41
N      17.80      26.06      46.60
N      17.77      22.74      13.54
N       6.59       9.58      13.53
N       6.62       6.26      46.59
