178

Co       7.58       2.53      19.85
Co       3.71       8.53       6.58
Cu       7.72       9.68      25.61
Cu       7.73       9.59      13.96
Cu       3.75       1.41       0.78
Cu       3.88       1.36      12.31
H       3.79       0.81      23.26
H       5.60       1.08      21.14
H       4.04      10.46      21.91
H      10.74       9.25      25.27
H       4.56       9.04      23.80
H       4.21       6.95      25.79
H       3.27       3.41      26.04
H       3.31       4.61       0.46
H       5.23       5.48       1.83
H       4.12       9.63       1.01
H       9.09       7.73      22.24
H       8.85       5.74      20.81
H       9.02       4.10      21.53
H       6.32       6.72      22.34
H       3.90       5.55      21.73
H       4.62       3.13      20.61
H       4.64       0.80      16.31
H       2.77       1.13      18.37
H       4.15      10.50      17.58
H       4.63       9.22      14.26
H       3.66       9.11      15.74
H       4.08       6.95      13.73
H       5.12       3.46      13.52
H       4.17       4.73      12.76
H       2.18       5.51      11.39
H      10.48       9.67      12.10
H       6.15       7.79      17.40
H       6.34       5.86      18.93
H       6.18       4.17      18.30
H       8.82       6.81      17.31
H       4.10       5.67      17.86
H       3.44       3.27      19.07
H       7.65      10.23       3.13
H       5.83       9.98       5.24
H       7.41       0.60       4.45
H       0.70       1.84       1.12
H       6.91       2.01       2.61
H       7.25       4.10       0.62
H       8.18       7.64       0.37
H       8.15       6.44      25.94
H       6.17       5.63      24.60
H       7.37       1.49      25.32
H       2.33       3.33       4.19
H       2.51       5.33       5.64
H       2.36       6.98       4.90
H       5.05       4.37       4.02
H       7.48       5.53       4.65
H       6.75       7.90       5.88
H       6.98      10.24       9.94
H       8.83      10.01       7.85
H       7.44       0.64       8.68
H       6.97       1.84      12.02
H       7.88       2.09      10.51
H       7.44       4.13      12.59
H       6.44       7.68      12.85
H       7.24       6.37      13.70
H       2.11       5.19      15.20
H       1.22       1.08      14.02
H       5.27       3.37       8.97
H       4.91       5.26       7.62
H       5.10       6.93       8.26
H       2.37       4.36       9.14
H       7.12       5.57       8.53
H       7.89       7.95       7.35
C       4.75       0.32      23.09
C       5.68       0.48      22.04
C      10.22      10.60      22.37
C      10.69       8.97      24.20
C      10.19       7.54      24.08
C       3.51       6.62      25.01
C       3.15       5.26      24.96
C       3.87       4.31      25.87
C       5.20       6.55       1.58
C       4.13       7.43       1.63
C       4.61       8.67       1.15
C       9.35       4.89      24.02
C       9.00       5.70      22.96
C       9.40       7.05      23.03
C       8.53       5.09      21.64
C       6.10       5.76      21.88
C       4.89       5.17      21.55
C       5.23       3.91      21.03
C       3.67       0.33      16.46
C       2.71       0.53      17.48
C       5.12      10.64      17.13
C       4.68       8.98      15.33
C       5.13       7.54      15.52
C       4.68       6.62      14.57
C       4.93       5.25      14.71
C       4.39       4.26      13.72
C       9.41       6.57      11.63
C       3.31       7.45      11.53
C      10.00       8.70      12.00
C       5.68       4.88      15.81
C       6.12       5.72      16.81
C       5.84       7.09      16.63
C       6.63       5.16      18.12
C       9.05       5.86      17.78
C       3.11       5.28      18.08
C       2.80       4.04      18.65
C       6.70      10.73       3.30
C       5.76      10.57       4.33
C       1.23       0.45       4.00
C       0.77       2.10       2.18
C       1.26       3.52       2.33
C       7.94       4.44       1.40
C       8.26       5.80       1.46
C       7.56       6.75       0.54
C       6.22       4.56      24.81
C       7.32       3.71      24.76
C       6.85       2.44      25.21
C       9.18       6.18       2.43
C       2.39       5.37       3.49
C       2.03       4.01       3.39
C       2.84       5.98       4.80
C       5.27       5.31       4.52
C       6.48       5.90       4.86
C       6.13       7.13       5.44
C       7.94      10.73       9.80
C       8.89      10.59       8.76
C       6.47       0.49       9.12
C       6.86       2.13      10.96
C       6.31       3.55      10.85
C       6.75       4.46      11.81
C       6.37       5.82      11.78
C       7.05       6.78      12.70
C       2.10       4.16      14.84
C       8.29       3.19      14.85
C       1.65       2.04      14.24
C       5.41       6.18      10.82
C       5.09       5.38       9.74
C       5.53       4.03       9.80
C       4.60       5.96       8.43
C       2.16       5.32       8.67
C       8.13       5.93       8.34
C       8.49       7.16       7.78
N       8.69      10.38      23.99
N       9.91       9.97      23.53
N       6.28       7.26       1.09
N       5.93       8.55       0.79
N       7.09       4.87      21.57
N       6.56       3.74      21.03
N       6.71      10.37      15.55
N       5.47       9.99      15.98
N       8.34       7.28      12.15
N       8.70       8.58      12.41
N       8.09       4.96      18.14
N       8.63       3.85      18.70
N       2.78       0.68       2.39
N       1.55       1.08       2.84
N       5.15       3.81      25.28
N       5.53       2.53      25.56
N       4.28       6.18       4.87
N       4.80       7.30       5.46
N       4.89       0.68      10.72
N       6.11       1.10      10.29
N       3.19       3.59      14.22
N       2.92       2.31      13.84
N       3.16       6.19       8.35
N       2.65       7.32       7.77
Cl       2.10       1.63      20.95
Cl       6.70       8.15      24.23
Cl       8.64      10.24       0.66
Cl       6.10       1.53      18.62
Cl       8.70       8.13      15.40
Cl       6.03      10.24      12.47
Cl       9.33       9.53       5.40
Cl       4.79       2.91       2.16
Cl       2.83       0.79      25.73
Cl       5.29       9.46       7.78
Cl       2.85       2.86      10.88
Cl       5.64       0.73      13.80
