15

Ho       1.33       9.28       6.16
O       2.11       7.54       7.52
O       1.42       7.66       4.61
P       1.23      11.86       3.57
N       1.76       6.26       7.47
P       2.52       6.70       4.16
C       3.22      10.71       8.19
C      -1.10      11.01       7.28
O       1.97      10.63       7.92
O      -0.41      10.96       6.21
O       1.68      10.67       4.41
C       4.18      10.01       7.19
C      -1.10       9.71       8.10
O       3.66       9.42       6.21
O      -0.44       8.73       7.66
