15

Ho       6.00       1.12       9.23
P       6.11      -1.46      11.81
P       4.81       3.70      11.23
N       5.57       4.13       7.92
O       5.66      -0.27      10.98
C       3.16       0.39       8.19
C       8.43       0.69       7.28
O       3.68       0.98       9.18
O       7.77       1.67       7.72
O       5.91       2.74      10.78
O       5.22       2.86       7.86
C       4.12      -0.31       7.19
C       8.43      -0.61       8.10
O       5.36      -0.23       7.46
O       7.74      -0.56       9.18
