15

O       2.06       5.52       3.32
C      -0.45       4.83       0.50
Ho       2.38       4.13       1.60
C       4.82       4.51      -0.39
O       0.05       4.30       1.53
O       4.14       3.54       0.06
P       2.52       6.70       4.16
P       1.17       1.54       3.57
N       1.91       1.11       0.25
C       0.52       5.49      -0.50
C       4.85       5.81       0.41
O       1.75       5.43      -0.20
O       4.18       5.78       1.51
O       2.28       2.49       3.12
O       1.58       2.39       0.21
