12

Zn       3.77       4.69      11.79
O       4.30       2.81      11.72
O       4.01       6.65      11.78
O       4.34       4.82      13.70
O       3.97       4.63       9.80
C       5.09       7.35      11.66
C       1.27       3.57      12.95
C       5.05       4.71       9.08
C       5.53       4.96      14.20
C       5.49       2.33      11.61
N       1.76       4.50      12.00
N       0.95       5.18      11.28
