1104

H      32.63       5.49      34.20
H      32.96       3.17      34.48
H      32.92       0.67      34.51
H      32.34      37.27      34.44
H      29.62      37.97      31.32
H      29.61       4.76      31.32
H      28.11       1.92      33.81
H      24.54       1.92      31.56
H      25.83       1.92      29.54
H      32.00       1.92      29.68
H      27.59       1.92      27.66
H      29.54       1.92      26.25
H      30.27       7.14      31.96
H      30.17      35.67      31.94
H      33.01       1.92      27.47
H      25.95       1.92      34.95
H      10.11      37.25      34.20
H       9.78       0.67      34.48
H       9.82       3.17      34.51
H      10.40       5.47      34.44
H      13.12       4.77      31.32
H      13.13      37.97      31.32
H      14.63       1.92      33.81
H      18.17       1.92      31.50
H      16.89       1.92      29.51
H      10.74       1.92      29.67
H      15.14       1.92      27.66
H      13.20       1.92      26.25
H      12.47      35.60      31.97
H      12.56       7.07      31.94
H       9.72       1.92      27.47
H      16.91       1.92      34.92
H       5.49      10.11      11.11
H       3.17       9.78      11.39
H       0.67       9.82      11.42
H      37.27      10.40      11.35
H      37.97      13.12       8.23
H       4.77      13.13       8.24
H       1.92      14.63      10.73
H       1.92      18.20       8.47
H       1.92      16.91       6.45
H       1.92      10.74       6.59
H       1.92      15.14       4.57
H       1.92      13.20       3.16
H       7.14      12.47       8.88
H      35.67      12.56       8.86
H       1.92       9.73       4.39
H       1.92      16.79      11.87
H      37.25      32.63      11.12
H       0.67      32.95      11.40
H       3.17      32.92      11.42
H       5.47      32.34      11.35
H       4.77      29.62       8.23
H      37.97      29.61       8.24
H       1.92      28.11      10.73
H       1.92      24.56       8.42
H       1.92      25.85       6.43
H       1.92      32.00       6.59
H       1.92      27.60       4.57
H       1.92      29.54       3.16
H      35.59      30.27       8.88
H       7.07      30.17       8.86
H       1.92      33.01       4.39
H       1.92      25.83      11.83
H      32.34      37.27      11.42
H      32.92       0.67      11.35
H      32.96       3.17      11.38
H      32.63       5.49      11.66
H      29.61       4.76      14.54
H      29.62      37.97      14.54
H      28.10       1.92      12.04
H      24.54       1.92      14.30
H      25.83       1.92      16.32
H      32.00       1.92      16.18
H      27.57       1.92      18.18
H      29.49       1.92      19.58
H      30.17      35.67      13.91
H      30.27       7.14      13.89
H      32.97       1.92      18.52
H      25.94       1.92      10.90
H      10.40       5.47      11.42
H       9.82       3.17      11.35
H       9.78       0.67      11.38
H      10.11      37.25      11.66
H      13.13      37.97      14.54
H      13.12       4.77      14.54
H      14.63       1.92      12.04
H      18.17       1.92      14.36
H      16.89       1.92      16.35
H      10.73       1.92      16.18
H      15.16       1.92      18.18
H      13.25       1.92      19.58
H      12.56       7.07      13.91
H      12.47      35.59      13.90
H       9.76       1.92      18.52
H      16.91       1.92      10.94
H       5.47      32.34      34.51
H       3.18      32.92      34.44
H       0.67      32.95      34.46
H      37.25      32.63      34.74
H      37.97      29.61      37.62
H       4.77      29.62      37.63
H       1.93      28.10      35.13
H       1.93      24.54      37.38
H       1.92      25.83      39.41
H       1.92      32.00      39.26
H       1.92      27.57      41.27
H       1.92      29.49      42.67
H       7.07      30.17      37.00
H      35.60      30.27      36.98
H       1.92      32.97      41.60
H       1.93      25.94      33.99
H      37.27      10.40      34.51
H       0.67       9.82      34.44
H       3.18       9.78      34.46
H       5.49      10.11      34.74
H       4.77      13.13      37.62
H      37.97      13.12      37.63
H       1.92      14.63      35.13
H       1.92      18.17      37.44
H       1.92      16.89      39.43
H       1.92      10.73      39.26
H       1.92      15.16      41.27
H       1.92      13.25      42.67
H      35.67      12.56      37.00
H       7.14      12.47      36.97
H       1.92       9.76      41.60
H       1.92      16.91      34.02
H      35.07      36.30      33.96
H      33.78      36.39      32.94
H      35.60      34.26      35.00
H       7.67       6.44      33.96
H       8.96       6.34      32.94
H       7.14       8.48      35.00
H      36.30       7.67      10.88
H      36.39       8.96       9.85
H      34.26       7.14      11.92
H       6.44      35.07      10.88
H       6.34      33.78       9.86
H       8.48      35.60      11.92
H       7.67       6.44      11.89
H       8.96       6.34      12.92
H       7.14       8.48      10.86
H      35.07      36.30      11.90
H      33.78      36.39      12.92
H      35.60      34.25      10.86
H       6.44      35.07      34.98
H       6.34      33.78      36.00
H       8.48      35.60      33.94
H      36.30       7.67      34.98
H      36.39       8.96      36.00
H      34.26       7.14      33.94
H      20.27       1.92      37.37
H      18.87       1.92      36.49
H      22.45       1.92      36.33
H       1.92      22.46      14.28
H       1.92      23.87      13.41
H       1.92      20.29      13.25
H      20.27       1.92       8.49
H      18.87       1.92       9.36
H      22.45       1.92       9.52
H       1.93      20.27      31.57
H       1.93      18.87      32.45
H       1.93      22.45      32.61
H      35.36       1.92      21.83
H      34.48       1.92      20.43
H      34.32       1.92      24.01
H       7.38       1.92      21.83
H       8.25       1.92      20.43
H       8.42       1.92      24.01
H       1.92       7.38      44.92
H       1.92       8.25      43.52
H       1.92       8.42       0.92
H       1.92      35.36      44.92
H       1.92      34.48      43.52
H       1.92      34.32       0.92
H      16.63      28.38      21.20
H      16.96      26.06      21.48
H      16.92      23.56      21.51
H      16.34      21.27      21.44
H      13.62      21.97      18.32
H      13.61      27.66      18.32
H      12.10      24.81      20.81
H       8.54      24.81      18.56
H       9.83      24.81      16.54
H      16.00      24.81      16.68
H      11.59      24.81      14.66
H      13.54      24.81      13.25
H      14.27      30.03      18.96
H      14.17      19.67      18.94
H      17.01      24.81      14.47
H       9.95      24.81      21.95
H      33.00      21.25      21.20
H      32.67      23.56      21.48
H      32.71      26.06      21.51
H      33.29      28.36      21.44
H      36.01      27.66      18.32
H      36.02      21.97      18.32
H      37.52      24.81      20.81
H       2.17      24.81      18.50
H       0.89      24.81      16.51
H      33.63      24.81      16.67
H      38.03      24.81      14.66
H      36.09      24.81      13.25
H      35.36      19.60      18.97
H      35.45      29.96      18.94
H      32.61      24.81      14.47
H       0.91      24.81      21.92
H      28.38      33.00      44.29
H      26.07      32.67      44.57
H      23.56      32.71      44.59
H      21.27      33.29      44.53
H      21.97      36.01      41.40
H      27.66      36.02      41.41
H      24.82      37.52      43.90
H      24.82       2.20      41.65
H      24.82       0.91      39.62
H      24.81      33.63      39.76
H      24.82      38.03      37.75
H      24.81      36.09      36.34
H      30.03      35.36      42.06
H      19.67      35.45      42.03
H      24.81      32.61      37.56
H      24.82       0.79      45.04
H      21.25      16.62      44.29
H      23.56      16.95      44.57
H      26.07      16.92      44.59
H      28.36      16.34      44.53
H      27.66      13.62      41.41
H      21.97      13.61      41.41
H      24.81      12.11      43.90
H      24.81       8.56      41.59
H      24.81       9.84      39.60
H      24.81      16.00      39.76
H      24.81      11.59      37.75
H      24.81      13.54      36.34
H      19.59      14.26      42.05
H      29.96      14.17      42.03
H      24.82      17.01      37.56
H      24.81       9.83      45.01
H      16.34      21.27      44.60
H      16.92      23.56      44.53
H      16.96      26.06      44.55
H      16.63      28.38      44.83
H      13.61      27.65       1.54
H      13.62      21.97       1.54
H      12.10      24.81      45.22
H       8.54      24.81       1.30
H       9.83      24.81       3.32
H      16.00      24.81       3.18
H      11.57      24.81       5.18
H      13.49      24.81       6.58
H      14.17      19.67       0.91
H      14.27      30.03       0.89
H      16.97      24.81       5.52
H       9.95      24.81      44.08
H      33.29      28.36      44.60
H      32.71      26.06      44.53
H      32.67      23.56      44.55
H      33.00      21.25      44.83
H      36.02      21.97       1.54
H      36.01      27.66       1.54
H      37.52      24.81      45.22
H       2.17      24.81       1.36
H       0.89      24.81       3.35
H      33.62      24.81       3.18
H      38.05      24.81       5.18
H      36.14      24.81       6.58
H      35.45      29.96       0.91
H      35.36      19.59       0.90
H      32.65      24.81       5.52
H       0.91      24.81      44.11
H      28.36      16.34      21.51
H      26.07      16.92      21.44
H      23.56      16.95      21.46
H      21.25      16.63      21.74
H      21.97      13.61      24.62
H      27.66      13.62      24.63
H      24.82      12.10      22.13
H      24.81       8.54      24.38
H      24.81       9.83      26.41
H      24.81      16.00      26.26
H      24.81      11.57      28.27
H      24.81      13.49      29.67
H      29.96      14.17      24.00
H      19.60      14.27      23.98
H      24.81      16.97      28.60
H      24.82       9.94      20.99
H      21.27      33.29      21.51
H      23.56      32.71      21.44
H      26.07      32.67      21.46
H      28.38      33.00      21.74
H      27.66      36.02      24.62
H      21.97      36.01      24.63
H      24.81      37.52      22.13
H      24.81       2.17      24.44
H      24.81       0.89      26.43
H      24.81      33.62      26.26
H      24.81      38.05      28.27
H      24.81      36.14      29.67
H      19.67      35.45      24.00
H      30.03      35.36      23.97
H      24.81      32.65      28.60
H      24.81       0.91      21.02
H      19.07      20.30      20.96
H      17.78      20.39      19.94
H      19.60      18.26      22.00
H      30.56      29.33      20.96
H      31.85      29.23      19.94
H      30.03      31.37      22.00
H      20.30      30.56      44.05
H      20.40      31.84      43.03
H      18.26      30.03      45.09
H      29.33      19.07      44.05
H      29.23      17.78      43.03
H      31.37      19.60      45.09
H      30.56      29.33      45.07
H      31.85      29.23      46.09
H      30.03      31.37      44.03
H      19.07      20.30      45.07
H      17.78      20.39      46.09
H      19.60      18.25      44.03
H      29.33      19.07      21.98
H      29.23      17.78      23.00
H      31.37      19.60      20.94
H      20.30      30.56      21.98
H      20.39      31.85      23.00
H      18.26      30.03      20.94
H       4.27      24.81      24.37
H       2.87      24.81      23.49
H       6.45      24.81      23.33
H      24.81       6.46       1.28
H      24.81       7.87       0.41
H      24.81       4.29       0.25
H       4.27      24.81      41.66
H       2.87      24.81      42.54
H       6.45      24.81      42.70
H      24.82       4.27      18.57
H      24.82       2.87      19.45
H      24.82       6.45      19.61
H      19.36      24.81       8.83
H      18.48      24.81       7.43
H      18.32      24.81      11.01
H      30.27      24.81       8.83
H      31.14      24.81       7.43
H      31.31      24.81      11.01
H      24.81      30.27      31.92
H      24.81      31.14      30.52
H      24.81      31.31      34.10
H      24.81      19.36      31.92
H      24.81      18.48      30.52
H      24.81      18.32      34.10
C      29.94       1.92      30.05
C      28.66       1.92      29.48
C      27.71       1.92      30.50
C      28.36       1.92      31.73
C      27.60       1.92      32.93
C      26.17       1.92      32.91
C      25.56       1.92      31.63
C      26.31       1.92      30.44
C      28.52       1.92      28.08
C      29.67       1.92      27.26
C      30.98       1.92      27.80
C      31.08       1.92      29.22
C      30.51       3.06      32.17
C      31.48       2.61      33.07
C      31.48       1.23      33.06
C      30.51       0.78      32.17
C      32.23       0.34      33.83
C      31.92      37.87      33.74
C      31.06      37.33      32.75
C      30.33      38.28      31.99
C      30.31       4.45      31.99
C      31.10       5.38      32.72
C      32.05       4.87      33.64
C      32.25       3.50      33.82
C      29.83       1.92      31.53
C      30.89      35.94      32.58
C      30.97       6.77      32.55
C      32.15       1.92      26.99
C      25.42       1.92      34.11
C      12.80       1.92      30.05
C      14.07       1.92      29.47
C      15.02       1.92      30.49
C      14.37       1.92      31.72
C      15.12       1.92      32.92
C      16.54       1.92      32.87
C      17.16       1.92      31.60
C      16.41       1.92      30.41
C      14.21       1.92      28.08
C      13.06       1.92      27.26
C      11.75       1.92      27.80
C      11.65       1.92      29.22
C      12.23       0.78      32.17
C      11.26       1.23      33.07
C      11.26       2.61      33.06
C      12.22       3.07      32.17
C      10.51       3.50      33.83
C      10.82       4.87      33.74
C      11.67       5.41      32.75
C      12.41       4.46      31.99
C      12.42      38.29      31.99
C      11.64      37.35      32.72
C      10.69      37.87      33.63
C      10.49       0.34      33.82
C      12.90       1.92      31.53
C      11.85       6.80      32.58
C      11.76      35.98      32.55
C      10.59       1.92      26.99
C      17.34       1.92      34.02
C       1.92      12.80       6.96
C       1.92      14.07       6.39
C       1.92      15.03       7.41
C       1.92      14.38       8.64
C       1.92      15.14       9.84
C       1.92      16.57       9.82
C       1.92      17.18       8.55
C       1.92      16.43       7.35
C       1.92      14.21       4.99
C       1.92      13.06       4.17
C       1.92      11.75       4.71
C       1.92      11.65       6.14
C       3.07      12.23       9.09
C       2.61      11.26       9.99
C       1.24      11.26       9.98
C       0.78      12.23       9.08
C       0.34      10.51      10.74
C      37.87      10.82      10.65
C      37.33      11.67       9.66
C      38.28      12.41       8.90
C       4.45      12.42       8.90
C       5.38      11.64       9.63
C       4.87      10.69      10.55
C       3.50      10.49      10.73
C       1.92      12.91       8.44
C      35.94      11.85       9.49
C       6.76      11.76       9.47
C       1.92      10.59       3.90
C       1.92      17.31      11.02
C       1.92      29.94       6.96
C       1.92      28.67       6.39
C       1.92      27.72       7.40
C       1.92      28.37       8.64
C       1.92      27.62       9.83
C       1.92      26.20       9.79
C       1.92      25.58       8.51
C       1.92      26.32       7.33
C       1.92      28.53       4.99
C       1.92      29.67       4.17
C       1.92      30.98       4.71
C       1.92      31.09       6.13
C       0.78      30.51       9.09
C       1.23      31.48       9.99
C       2.61      31.48       9.98
C       3.07      30.51       9.08
C       3.50      32.23      10.74
C       4.87      31.92      10.65
C       5.41      31.06       9.67
C       4.46      30.33       8.90
C      38.29      30.31       8.90
C      37.35      31.10       9.63
C      37.87      32.05      10.55
C       0.34      32.25      10.73
C       1.92      29.83       8.44
C       6.80      30.89       9.49
C      35.97      30.97       9.47
C       1.92      32.15       3.90
C       1.92      25.40      10.94
C      29.93       1.92      15.80
C      28.66       1.92      16.37
C      27.70       1.92      15.35
C      28.35       1.92      14.12
C      27.60       1.92      12.93
C      26.17       1.92      12.95
C      25.55       1.92      14.22
C      26.30       1.92      15.42
C      28.50       1.92      17.76
C      29.64       1.92      18.57
C      30.95       1.92      18.03
C      31.08       1.92      16.62
C      30.51       0.78      13.69
C      31.48       1.23      12.79
C      31.48       2.61      12.79
C      30.51       3.07      13.68
C      32.25       3.50      12.04
C      32.05       4.87      12.22
C      31.10       5.38      13.14
C      30.31       4.45      13.87
C      30.33      38.28      13.87
C      31.06      37.33      13.11
C      31.92      37.87      12.12
C      32.23       0.34      12.03
C      29.82       1.92      14.32
C      30.98       6.76      13.30
C      30.89      35.94      13.28
C      32.06       1.92      18.89
C      25.42       1.92      11.75
C      12.80       1.92      15.80
C      14.07       1.92      16.37
C      15.02       1.92      15.37
C      14.37       1.92      14.13
C      15.12       1.92      12.94
C      16.54       1.92      12.98
C      17.16       1.92      14.26
C      16.42       1.92      15.45
C      14.24       1.92      17.76
C      13.10       1.92      18.57
C      11.78       1.92      18.04
C      11.65       1.92      16.62
C      12.22       3.07      13.69
C      11.26       2.61      12.79
C      11.26       1.23      12.79
C      12.23       0.78      13.68
C      10.49       0.34      12.04
C      10.69      37.87      12.22
C      11.64      37.35      13.14
C      12.42      38.29      13.87
C      12.41       4.46      13.87
C      11.67       5.41      13.11
C      10.82       4.87      12.12
C      10.51       3.50      12.03
C      12.91       1.93      14.33
C      11.77      35.97      13.31
C      11.85       6.80      13.28
C      10.68       1.92      18.90
C      17.33       1.92      11.84
C       1.92      29.93      38.88
C       1.92      28.66      39.45
C       1.93      27.70      38.44
C       1.93      28.35      37.21
C       1.93      27.60      36.02
C       1.93      26.17      36.03
C       1.93      25.55      37.31
C       1.92      26.30      38.50
C       1.92      28.50      40.84
C       1.92      29.64      41.66
C       1.92      30.95      41.12
C       1.92      31.08      39.71
C       3.07      30.51      36.77
C       2.61      31.48      35.88
C       1.24      31.47      35.87
C       0.78      30.51      36.77
C       0.35      32.25      35.13
C      37.87      32.05      35.31
C      37.35      31.10      36.23
C      38.29      30.31      36.95
C       4.46      30.32      36.96
C       5.41      31.06      36.19
C       4.87      31.92      35.21
C       3.51      32.23      35.12
C       1.93      29.82      37.41
C      35.97      30.97      36.39
C       6.80      30.89      36.37
C       1.92      32.05      41.98
C       1.93      25.42      34.84
C       1.92      12.80      38.88
C       1.92      14.07      39.46
C       1.92      15.02      38.45
C       1.92      14.37      37.22
C       1.92      15.12      36.02
C       1.92      16.54      36.07
C       1.92      17.16      37.35
C       1.92      16.41      38.53
C       1.92      14.23      40.84
C       1.92      13.09      41.66
C       1.92      11.78      41.12
C       1.92      11.65      39.71
C       0.78      12.22      36.77
C       1.24      11.26      35.88
C       2.61      11.26      35.87
C       3.07      12.22      36.77
C       3.50      10.48      35.13
C       4.87      10.69      35.31
C       5.38      11.64      36.23
C       4.45      12.42      36.95
C      38.28      12.41      36.96
C      37.33      11.67      36.19
C      37.87      10.82      35.21
C       0.34      10.51      35.11
C       1.92      12.90      37.41
C       6.76      11.76      36.39
C      35.94      11.85      36.36
C       1.92      10.68      41.98
C       1.92      17.33      34.92
C      34.31      32.60      35.19
C      34.66      33.91      34.80
C      33.76      34.74      34.10
C      32.46      34.26      33.80
C       8.42      10.13      35.18
C       8.08       8.82      34.80
C       8.98       8.00      34.10
C      10.28       8.48      33.80
C      32.60       8.42      12.10
C      33.91       8.08      11.72
C      34.74       8.98      11.01
C      34.26      10.28      10.71
C      10.14      34.31      12.10
C       8.83      34.66      11.72
C       8.00      33.76      11.01
C       8.48      32.46      10.72
C       8.42      10.13      10.68
C       8.08       8.83      11.06
C       8.98       8.00      11.76
C      10.28       8.48      12.06
C      34.31      32.60      10.67
C      34.66      33.91      11.06
C      33.76      34.74      11.76
C      32.46      34.26      12.06
C      10.14      34.31      33.76
C       8.83      34.66      34.14
C       8.00      33.76      34.85
C       8.48      32.46      35.14
C      32.60       8.43      33.76
C      33.91       8.08      34.14
C      34.74       8.98      34.85
C      34.26      10.28      35.14
C      22.79       1.92      34.26
C      21.99       1.92      35.42
C      20.57       1.92      35.36
C      19.95       1.92      34.10
C       1.92      19.95      11.17
C       1.92      20.75      12.34
C       1.92      22.17      12.28
C       1.92      22.79      11.01
C      22.79       1.92      11.60
C      21.99       1.92      10.44
C      20.57       1.92      10.50
C      19.95       1.92      11.76
C       1.93      22.79      34.69
C       1.93      21.99      33.52
C       1.93      20.57      33.58
C       1.93      19.95      34.85
C      32.24       1.92      24.35
C      33.41       1.92      23.55
C      33.35       1.92      22.13
C      32.08       1.92      21.51
C      10.49       1.92      24.35
C       9.33       1.92      23.55
C       9.39       1.92      22.13
C      10.65       1.92      21.50
C       1.92      10.49       1.26
C       1.92       9.33       0.46
C       1.92       9.39      45.22
C       1.92      10.65      44.59
C       1.92      32.24       1.26
C       1.92      33.41       0.46
C       1.92      33.35      45.22
C       1.92      32.08      44.59
C      13.93      24.81      17.05
C      12.66      24.81      16.48
C      11.71      24.81      17.50
C      12.35      24.81      18.73
C      11.60      24.81      19.93
C      10.17      24.81      19.91
C       9.56      24.81      18.63
C      10.31      24.81      17.44
C      12.52      24.81      15.08
C      13.67      24.81      14.26
C      14.98      24.81      14.80
C      15.08      24.81      16.22
C      14.51      25.96      19.17
C      15.48      25.50      20.07
C      15.48      24.13      20.06
C      14.51      23.67      19.17
C      16.23      23.23      20.83
C      15.92      21.87      20.74
C      15.06      21.33      19.75
C      14.33      22.28      18.99
C      14.31      27.34      18.99
C      15.10      28.27      19.72
C      16.05      27.76      20.64
C      16.25      26.39      20.82
C      13.83      24.81      18.53
C      14.89      19.94      19.58
C      14.97      29.66      19.55
C      16.15      24.81      13.99
C       9.42      24.81      21.11
C      35.69      24.81      17.05
C      36.96      24.81      16.47
C      37.91      24.81      17.49
C      37.26      24.81      18.72
C      38.01      24.81      19.92
C       0.54      24.81      19.87
C       1.16      24.81      18.60
C       0.41      24.81      17.41
C      37.10      24.81      15.08
C      35.95      24.81      14.26
C      34.64      24.81      14.80
C      34.54      24.81      16.22
C      35.12      23.67      19.17
C      34.15      24.12      20.07
C      34.15      25.50      20.06
C      35.11      25.96      19.17
C      33.40      26.39      20.83
C      33.71      27.76      20.74
C      34.56      28.30      19.75
C      35.30      27.35      18.99
C      35.31      22.29      18.99
C      34.53      21.35      19.72
C      33.58      21.87      20.63
C      33.38      23.23      20.82
C      35.79      24.82      18.53
C      34.74      29.69      19.58
C      34.65      19.98      19.55
C      33.48      24.81      13.99
C       1.33      24.81      21.02
C      24.82      35.69      40.14
C      24.82      36.96      39.57
C      24.82      37.92      40.58
C      24.81      37.27      41.82
C      24.82      38.03      43.01
C      24.82       0.56      43.00
C      24.82       1.18      41.72
C      24.82       0.43      40.53
C      24.81      37.10      38.17
C      24.81      35.95      37.35
C      24.81      34.64      37.89
C      24.82      34.54      39.31
C      25.96      35.12      42.26
C      25.50      34.15      43.16
C      24.13      34.15      43.15
C      23.67      35.11      42.26
C      23.24      33.40      43.92
C      21.87      33.71      43.82
C      21.33      34.56      42.84
C      22.28      35.30      42.08
C      27.34      35.31      42.08
C      28.27      34.53      42.81
C      27.76      33.58      43.72
C      26.39      33.38      43.91
C      24.81      35.80      41.62
C      19.94      34.74      42.67
C      29.65      34.65      42.64
C      24.81      33.48      37.08
C      24.82       1.31      44.20
C      24.81      13.94      40.14
C      24.81      12.67      39.56
C      24.81      11.72      40.58
C      24.82      12.37      41.81
C      24.81      11.62      43.01
C      24.81      10.20      42.96
C      24.81       9.58      41.69
C      24.81      10.32      40.50
C      24.81      12.53      38.17
C      24.81      13.67      37.35
C      24.81      14.98      37.89
C      24.81      15.09      39.31
C      23.67      14.51      42.26
C      24.13      15.47      43.16
C      25.50      15.48      43.15
C      25.96      14.51      42.26
C      26.39      16.23      43.92
C      27.76      15.92      43.83
C      28.30      15.06      42.84
C      27.35      14.33      42.08
C      22.29      14.31      42.08
C      21.35      15.10      42.81
C      21.87      16.05      43.72
C      23.24      16.25      43.91
C      24.82      13.83      41.62
C      29.69      14.89      42.67
C      19.97      14.97      42.64
C      24.81      16.15      37.08
C      24.81       9.40      44.11
C      13.93      24.81       2.80
C      12.66      24.81       3.37
C      11.70      24.81       2.35
C      12.35      24.81       1.12
C      11.60      24.81      46.10
C      10.17      24.81      46.12
C       9.55      24.81       1.22
C      10.30      24.81       2.42
C      12.50      24.81       4.76
C      13.64      24.81       5.57
C      14.95      24.81       5.03
C      15.08      24.81       3.62
C      14.51      23.67       0.69
C      15.48      24.12      45.97
C      15.48      25.50      45.96
C      14.51      25.96       0.68
C      16.25      26.39      45.22
C      16.05      27.76      45.40
C      15.10      28.27       0.14
C      14.31      27.34       0.87
C      14.33      22.28       0.87
C      15.06      21.33       0.11
C      15.92      21.87      45.30
C      16.23      23.23      45.20
C      13.82      24.81       1.32
C      14.97      29.65       0.30
C      14.89      19.94       0.28
C      16.05      24.81       5.89
C       9.42      24.81      44.92
C      35.69      24.81       2.80
C      36.96      24.81       3.37
C      37.91      24.81       2.37
C      37.26      24.82       1.13
C      38.01      24.81      46.11
C       0.54      24.81      46.16
C       1.16      24.81       1.26
C       0.41      24.81       2.45
C      37.13      24.81       4.76
C      35.99      24.81       5.57
C      34.67      24.81       5.04
C      34.54      24.81       3.62
C      35.11      25.96       0.69
C      34.15      25.50      45.97
C      34.15      24.12      45.96
C      35.12      23.67       0.68
C      33.38      23.23      45.22
C      33.58      21.87      45.40
C      34.53      21.35       0.14
C      35.31      22.29       0.87
C      35.30      27.35       0.87
C      34.56      28.30       0.11
C      33.71      27.76      45.30
C      33.40      26.39      45.20
C      35.80      24.82       1.33
C      34.66      19.97       0.31
C      34.74      29.69       0.28
C      33.57      24.81       5.90
C       1.34      24.81      45.01
C      24.81      13.93      25.88
C      24.81      12.66      26.45
C      24.82      11.70      25.44
C      24.82      12.35      24.21
C      24.82      11.60      23.02
C      24.81      10.17      23.03
C      24.81       9.55      24.31
C      24.81      10.30      25.50
C      24.81      12.50      27.84
C      24.81      13.64      28.66
C      24.81      14.95      28.12
C      24.81      15.08      26.71
C      25.96      14.51      23.77
C      25.50      15.48      22.88
C      24.13      15.47      22.87
C      23.67      14.51      23.77
C      23.24      16.25      22.13
C      21.87      16.05      22.31
C      21.35      15.10      23.23
C      22.29      14.31      23.95
C      27.35      14.33      23.96
C      28.30      15.06      23.19
C      27.76      15.92      22.21
C      26.39      16.23      22.12
C      24.82      13.82      24.41
C      19.97      14.97      23.39
C      29.69      14.89      23.37
C      24.81      16.05      28.98
C      24.81       9.42      21.84
C      24.81      35.69      25.88
C      24.81      36.96      26.46
C      24.81      37.91      25.45
C      24.81      37.26      24.22
C      24.81      38.01      23.02
C      24.81       0.54      23.07
C      24.81       1.16      24.35
C      24.81       0.41      25.53
C      24.81      37.12      27.84
C      24.81      35.99      28.66
C      24.81      34.67      28.12
C      24.81      34.54      26.71
C      23.67      35.11      23.77
C      24.13      34.15      22.88
C      25.50      34.15      22.87
C      25.96      35.12      23.77
C      26.39      33.38      22.13
C      27.76      33.58      22.31
C      28.27      34.53      23.23
C      27.34      35.31      23.95
C      22.28      35.30      23.96
C      21.33      34.56      23.19
C      21.87      33.71      22.21
C      23.23      33.40      22.11
C      24.81      35.80      24.41
C      29.65      34.65      23.39
C      19.94      34.74      23.36
C      24.81      33.57      28.98
C      24.81       1.33      21.92
C      18.31      16.60      22.19
C      18.66      17.91      21.80
C      17.76      18.74      21.10
C      16.46      18.26      20.80
C      31.31      33.02      22.18
C      30.97      31.72      21.80
C      31.87      30.89      21.10
C      33.17      31.37      20.80
C      16.60      31.31      45.27
C      17.91      30.96      44.89
C      18.74      31.87      44.18
C      18.26      33.17      43.89
C      33.03      18.30      45.28
C      31.72      18.66      44.89
C      30.89      17.76      44.19
C      31.37      16.46      43.89
C      31.32      33.02      43.85
C      30.97      31.72      44.23
C      31.87      30.89      44.94
C      33.17      31.37      45.23
C      18.31      16.60      43.85
C      18.66      17.91      44.23
C      17.76      18.74      44.94
C      16.46      18.26      45.23
C      33.03      18.31      20.76
C      31.72      18.66      21.14
C      30.89      17.76      21.85
C      31.37      16.46      22.14
C      16.60      31.32      20.76
C      17.91      30.97      21.14
C      18.74      31.87      21.85
C      18.26      33.17      22.14
C       6.79      24.81      21.26
C       5.99      24.81      22.42
C       4.57      24.81      22.36
C       3.95      24.81      21.10
C      24.82       3.95      44.34
C      24.82       4.74      45.51
C      24.82       6.16      45.45
C      24.82       6.79      44.19
C       6.79      24.81      44.78
C       5.99      24.81      43.61
C       4.57      24.81      43.67
C       3.95      24.81      44.93
C      24.82       6.79      21.69
C      24.82       5.99      20.52
C      24.82       4.57      20.58
C      24.82       3.95      21.85
C      16.24      24.81      11.35
C      17.41      24.81      10.55
C      17.35      24.81       9.13
C      16.08      24.81       8.51
C      33.38      24.81      11.35
C      32.22      24.81      10.55
C      32.28      24.81       9.13
C      33.54      24.81       8.50
C      24.81      33.38      34.44
C      24.81      32.22      33.64
C      24.81      32.28      32.22
C      24.81      33.54      31.59
C      24.81      16.24      34.44
C      24.81      17.41      33.64
C      24.81      17.35      32.22
C      24.81      16.08      31.59
N      32.22      32.97      34.19
N      33.07      32.20      34.83
N      34.22      35.93      33.67
N      35.18      31.79      35.79
N      31.53      34.92      33.08
N      10.52       9.76      34.19
N       9.67      10.54      34.83
N       8.52       6.80      33.67
N       7.58      10.96      35.79
N      11.21       7.81      33.08
N      32.97      10.52      11.10
N      32.20       9.67      11.74
N      35.93       8.52      10.58
N      31.78       7.57      12.71
N      34.93      11.21       9.99
N       9.77      32.22      11.10
N      10.54      33.07      11.74
N       6.80      34.22      10.58
N      10.94      35.19      12.70
N       7.81      31.53       9.99
N      10.52       9.77      11.67
N       9.67      10.54      11.03
N       8.52       6.80      12.19
N       7.58      10.96      10.06
N      11.21       7.81      12.78
N      32.22      32.97      11.67
N      33.07      32.20      11.03
N      34.22      35.93      12.19
N      35.18      31.79      10.08
N      31.53      34.92      12.78
N       9.77      32.21      34.76
N      10.54      33.07      34.11
N       6.80      34.22      35.28
N      10.96      35.16      33.15
N       7.81      31.53      35.87
N      32.97      10.52      34.76
N      32.20       9.67      34.12
N      35.93       8.52      35.28
N      31.79       7.56      33.16
N      34.93      11.21      35.87
N      20.78       1.92      33.02
N      22.10       1.92      33.09
N      19.84       1.92      36.50
N      24.14       1.92      34.29
N      18.62       1.92      33.93
N       1.92      21.96       9.93
N       1.92      20.64      10.00
N       1.92      22.90      13.42
N       1.92      18.60      11.20
N       1.92      24.11      10.85
N      20.78       1.92      12.84
N      22.10       1.92      12.77
N      19.84       1.92       9.36
N      24.14       1.92      11.57
N      18.62       1.92      11.92
N       1.93      20.78      35.93
N       1.93      22.10      35.86
N       1.93      19.84      32.44
N       1.93      24.14      34.66
N       1.92      18.62      35.01
N      31.01       1.92      22.34
N      31.08       1.92      23.66
N      34.49       1.92      21.40
N      32.28       1.92      25.70
N      31.90       1.92      20.18
N      11.73       1.92      22.34
N      11.66       1.92      23.65
N       8.25       1.92      21.40
N      10.47       1.92      25.70
N      10.84       1.92      20.18
N       1.92      11.73      45.43
N       1.92      11.66       0.57
N       1.92       8.25      44.49
N       1.92      10.46       2.61
N       1.92      10.84      43.27
N       1.92      31.00      45.43
N       1.92      31.08       0.57
N       1.92      34.49      44.49
N       1.92      32.28       2.61
N       1.92      31.89      43.27
N      16.22      16.97      21.19
N      17.07      16.20      21.83
N      18.22      19.93      20.67
N      19.18      15.79      22.79
N      15.53      18.92      20.08
N      33.41      32.66      21.19
N      32.56      33.43      21.83
N      31.41      29.69      20.67
N      30.47      33.85      22.79
N      34.10      30.70      20.08
N      16.97      33.41      44.28
N      16.20      32.56      44.92
N      19.94      31.41      43.76
N      15.78      30.46      45.88
N      18.93      34.10      43.17
N      32.66      16.22      44.28
N      33.43      17.07      44.92
N      29.69      18.22      43.76
N      33.84      19.18      45.87
N      30.70      15.53      43.17
N      33.41      32.66      44.85
N      32.56      33.43      44.20
N      31.41      29.69      45.37
N      30.47      33.85      43.24
N      34.10      30.70      45.95
N      16.22      16.97      44.85
N      17.07      16.20      44.20
N      18.22      19.93      45.37
N      19.18      15.79      43.25
N      15.53      18.92      45.95
N      32.66      16.22      21.76
N      33.43      17.07      21.11
N      29.69      18.22      22.28
N      33.85      19.16      20.15
N      30.70      15.53      22.87
N      16.97      33.41      21.76
N      16.20      32.56      21.12
N      19.93      31.41      22.28
N      15.79      30.45      20.16
N      18.93      34.10      22.87
N       4.78      24.81      20.02
N       6.10      24.81      20.09
N       3.84      24.81      23.50
N       8.14      24.81      21.29
N       2.62      24.81      20.93
N      24.82       5.96      43.11
N      24.82       4.64      43.18
N      24.81       6.90       0.42
N      24.82       2.60      44.37
N      24.82       8.11      44.02
N       4.78      24.81      46.02
N       6.10      24.81      45.94
N       3.84      24.81      42.53
N       8.14      24.81      44.75
N       2.62      24.81      45.10
N      24.82       4.78      22.93
N      24.82       6.10      22.86
N      24.82       3.84      19.44
N      24.82       8.14      21.66
N      24.81       2.62      22.01
N      15.01      24.81       9.34
N      15.08      24.81      10.66
N      18.49      24.81       8.40
N      16.28      24.81      12.70
N      15.90      24.81       7.18
N      34.62      24.81       9.34
N      34.55      24.81      10.65
N      31.14      24.81       8.40
N      33.36      24.81      12.70
N      33.73      24.81       7.18
N      24.81      34.62      32.43
N      24.81      34.55      33.74
N      24.81      31.14      31.49
N      24.81      33.35      35.79
N      24.81      33.73      30.27
N      24.81      15.01      32.43
N      24.81      15.08      33.75
N      24.81      18.49      31.49
N      24.81      16.28      35.79
N      24.81      15.89      30.27
