164

Co      13.93       3.43       2.64
Co      13.34      10.56       8.06
Co       5.92      17.50       7.89
Co       6.31      10.56       2.79
H      12.23      14.56       2.27
H      10.63      13.33       0.81
H      17.08       7.48       9.41
H      12.60       4.00       0.17
H      10.84       2.72       3.02
H       8.74      15.09       4.44
H      10.00      14.06       6.36
H      13.39      16.47       5.19
H      11.28       8.91       6.23
H       8.87       8.39       6.61
H       7.56       9.73       8.28
H      11.18      11.95       9.07
H      11.82       8.38       9.54
H      10.51      20.02       9.19
H      11.96      18.81       7.53
H      14.79       8.53       6.65
H      15.40      12.21       6.23
H       3.73      12.74       6.60
H       5.05      11.40       8.28
H      15.51       9.17       9.06
H      14.86      12.75       9.55
H      15.19      15.19       9.20
H      13.74      16.40       7.54
H      11.89      12.60       6.65
H       2.75       4.35       3.00
H       3.87       6.03       4.45
H      16.67       7.05       6.37
H      13.26       4.71       5.11
H      14.42       6.56       2.26
H       1.96       7.80       0.82
H       9.62      13.66       9.43
H       0.92       3.06       0.09
H       7.38       6.56       8.27
H       8.99       7.80       9.71
H       2.59      13.66       1.10
H       6.98      17.15      10.45
H       8.80      18.43       7.53
H      10.90       6.03       6.08
H       9.64       7.04       4.16
H       6.22       4.71       5.42
H       8.38      12.24       4.28
H      10.79      12.73       3.92
H      12.10      11.37       2.26
H       8.43       9.25       1.40
H       7.80      12.73       0.97
H       9.13       1.09       1.33
H       7.71       2.31       3.01
H       4.77      12.63       3.81
H       4.23       8.89       4.28
H      15.89       8.40       3.92
H      14.58       9.76       2.26
H       4.18      11.87       1.40
H       4.81       8.39       0.97
H       4.45       5.96       1.34
H       5.87       4.73       3.01
H       7.83       8.49       3.82
H      16.90      16.80       7.51
H      15.78      15.09       6.09
H       2.96      14.06       4.17
H       6.36      16.47       5.35
H       5.20      14.56       8.26
H      17.67      13.33       9.72
H      10.03       7.48       1.12
H      18.66      18.09      10.36
C      12.71       0.98       1.45
C      10.84      14.38       0.62
C      17.75       8.00      10.08
C      18.04       9.38       9.88
C      12.39       2.94       0.25
C      10.39      16.32       3.84
C       9.78      15.37       4.65
C      10.48      14.78       5.70
C      11.83      15.17       5.92
C      12.36      16.15       5.07
C      10.69       9.47       6.96
C       9.34       9.19       7.18
C       8.62       9.93       8.11
C       9.28      10.96       8.84
C      10.63      11.18       8.53
C      12.41       7.83       8.81
C      12.25       6.46       8.61
C      13.04       5.80       7.68
C      14.00       6.54       6.95
C      14.10       7.91       7.22
C      15.99      11.65       6.95
C      17.34      11.94       7.18
C      18.06      11.21       8.12
C      17.40      10.18       8.84
C      16.06       9.95       8.53
C      14.27      13.29       8.81
C      14.43      14.66       8.61
C      13.64      15.33       7.69
C      12.68      14.59       6.95
C      12.58      13.21       7.22
C      16.29       4.82       3.82
C       2.83       5.76       4.65
C      16.20       6.33       5.70
C      14.85       5.95       5.91
C      14.31       5.00       5.03
C       0.86       6.07       1.44
C       1.76       6.75       0.62
C       8.93      13.13      10.09
C       8.64      11.76       9.87
C       1.17       4.12       0.21
C       6.91      20.15       9.09
C       8.79       6.75       9.91
C       1.90      13.13       0.43
C       1.61      11.76       0.65
C       7.22      18.20      10.33
C       9.25       4.82       6.71
C       9.87       5.76       5.88
C       9.17       6.33       4.82
C       7.81       5.95       4.62
C       7.27       5.00       5.50
C       8.96      11.68       3.56
C      10.31      11.94       3.34
C      11.04      11.20       2.41
C      10.36      10.18       1.69
C       9.00       9.98       1.96
C       7.21      13.28       1.69
C       7.39      14.65       1.91
C       6.61      15.32       2.84
C       5.64      14.59       3.57
C       5.50      13.23       3.27
C       3.65       9.44       3.55
C       2.29       9.19       3.34
C       1.57       9.93       2.42
C       2.25      10.95       1.69
C       3.61      11.14       1.96
C       5.40       7.84       1.70
C       5.21       6.48       1.91
C       5.99       5.80       2.85
C       6.97       6.53       3.58
C       7.11       7.89       3.28
C       3.35      16.32       6.69
C      16.81      15.37       5.88
C       3.44      14.78       4.83
C       4.79      15.17       4.61
C       5.32      16.15       5.46
C      18.76      15.06       9.08
C      17.87      14.38       9.91
C      10.71       8.00       0.45
C      11.00       9.38       0.64
C      18.44      17.03      10.28
N      13.00       2.30       1.27
N      11.68      16.74       4.05
N      11.34      10.48       7.62
N      13.35       8.57       8.13
N      15.34      10.64       7.61
N      13.34      12.56       8.13
N      14.98       4.43       4.01
N       0.54       4.75       1.23
N       6.59      18.83       9.31
N       7.95       4.43       6.52
N       8.30      10.69       2.87
N       6.25      12.56       2.36
N       4.32      10.43       2.87
N       6.36       8.56       2.36
N       4.65      16.74       6.48
N      19.06      16.39       9.26
