20

H       2.25       7.67       0.85
H      -0.64       8.40       0.76
H      -0.23      10.05      -0.85
H       2.67       9.32      -0.76
C       0.74       6.52      -0.09
C       1.33       7.85       0.24
C       0.39       8.80       0.88
C       0.54       9.17       2.33
C       1.29      11.20       0.09
C       0.69       9.87      -0.24
C       1.64       8.92      -0.88
C       1.49       8.55      -2.33
O      -0.35       6.13       0.48
O       1.29       5.71      -0.91
O      -0.38       9.94       2.77
O       1.53       8.67       2.96
O       2.38      11.59      -0.48
O       0.74      12.01       0.91
O       2.41       7.78      -2.77
O       0.50       9.05      -2.96
