66

H      15.28      18.15       0.36
C       6.86       6.85       0.40
C       8.14       6.10       0.57
C       9.34       6.79       0.75
C      17.78      17.11       0.40
C      16.49      16.37       0.57
C      16.50      14.99       0.75
O       5.79       6.15       0.33
O       6.93       8.12       0.33
C       9.36       2.52       0.40
C       9.35       4.00       0.57
C      10.55       4.69       0.75
C      14.05       9.53       1.27
C      20.01       4.69       0.75
C      21.21       2.52       0.40
C      21.22       4.00       0.57
C      23.71       6.85       0.40
C      22.42       6.10       0.57
C      21.23       6.79       0.75
O      18.85      16.40       0.33
O      17.71      18.38       0.33
C      15.28       7.41       1.27
H      11.48       4.13       0.80
C      16.51       9.53       1.27
H      12.04       9.70       1.52
H      16.15       5.58       1.52
H      21.24       7.88       0.79
H      13.12      14.46       0.80
H      17.66      11.20       1.52
C      14.07      16.37       0.57
C      14.07      14.99       0.75
C      12.78      17.11       0.40
C       8.14       4.70       0.50
C      10.56       6.10       0.86
C      11.78       6.80       1.05
C      12.83       7.41       1.18
C      14.05       8.11       1.25
N      12.87      10.22       1.27
N      15.28       6.04       1.27
C      18.79       6.80       1.05
C      17.73       7.41       1.18
C      16.52       8.11       1.25
N      17.69      10.22       1.27
C      20.00       6.10       0.86
C      22.43       4.70       0.50
O      22.35       1.94       0.33
O      20.06       1.94       0.33
C      15.28      17.08       0.50
O       8.22       1.94       0.33
C      15.28      12.87       1.05
C      15.28      11.65       1.18
C      15.28      10.25       1.25
O      10.50       1.94       0.33
C      15.28      14.27       0.86
O      24.78       6.15       0.33
O      23.63       8.12       0.33
O      12.85      18.38       0.33
O      11.71      16.40       0.33
H       9.32       7.88       0.80
H      14.41       5.58       1.52
H      17.45      14.46       0.80
H      12.90      11.20       1.52
H      19.08       4.13       0.80
H      18.53       9.70       1.52
H       7.20       4.16       0.36
H      23.36       4.16       0.36
