66

O      -9.49      37.97      24.65
O      -8.35      35.99      24.65
H       8.08      39.96      24.62
O       7.06      42.18      24.65
H       0.00      25.96      24.62
O       2.43      25.73      24.65
O       3.57      27.71      24.65
C      -7.15      39.42      24.48
H      -8.08      39.96      24.62
C      -4.72      38.02      24.11
C      -3.51      37.32      23.92
C      -2.45      36.71      23.80
C      -1.23      36.01      23.73
C       0.00      36.71      23.71
C       1.23      34.58      23.71
C      -1.23      34.58      23.71
H       5.96      36.24      24.18
H       0.87      38.54      23.46
C       8.42      37.27      24.58
C       7.14      38.02      24.41
C       5.94      37.32      24.23
H       2.38      32.92      23.46
N       0.00      38.08      23.71
H      -2.17      29.66      24.18
N       2.41      33.90      23.71
H      -3.80      39.99      24.18
H      -3.25      34.42      23.46
N      -2.41      33.90      23.71
C      -1.21      27.74      24.41
C      -1.21      29.13      24.23
C      -2.50      27.01      24.58
H       3.80      39.99      24.18
H       3.25      34.42      23.46
H      -5.96      36.24      24.18
H      -0.87      38.54      23.46
C      -5.92      41.60      24.58
C      -5.93      40.12      24.41
C      -4.73      39.43      24.23
H       2.17      29.66      24.18
H      -2.38      32.92      23.46
C       5.92      41.60      24.58
C       5.93      40.12      24.41
C       4.73      39.43      24.23
C      -8.42      37.27      24.58
C      -7.14      38.02      24.41
C      -5.94      37.32      24.23
C       4.72      38.02      24.11
C       3.51      37.32      23.92
C       2.45      36.71      23.80
C       1.23      36.01      23.73
C       7.15      39.42      24.48
O       9.49      37.97      24.65
O       8.35      35.99      24.65
O      -2.43      25.73      24.65
O      -3.57      27.71      24.65
C       2.50      27.01      24.58
O      -7.06      42.18      24.65
O      -4.78      42.17      24.65
C       1.21      29.13      24.23
C       1.21      27.74      24.41
C       0.00      27.04      24.48
C       0.00      29.84      24.11
C       0.00      31.25      23.92
C       0.00      32.47      23.80
C       0.00      33.87      23.73
O       4.78      42.17      24.65
