12

Cu       2.88       3.42      13.94
O       2.81       1.46      13.89
O       2.54       5.33      13.95
O       2.86       3.53      11.99
O       2.49       3.26      15.84
C       1.34       5.81      13.90
C       1.75       0.76      13.68
C       1.30       3.10      16.34
C       1.79       3.46      11.24
N       4.90       3.63      14.16
N       5.70       2.94      13.42
N       5.36       4.88      14.53
