50

Zn       1.68       2.25      10.46
Zn       0.34       7.92       5.41
Zn      -0.84       6.82      12.04
Zn       2.20       5.55       2.29
Zn       3.53      -0.12       7.34
Zn       4.72       0.97       0.71
P       0.80       0.33       7.92
P       1.81       2.20       0.13
P       3.07       7.46       4.82
P       2.07       5.59      12.62
H       2.88       8.26       9.48
H       3.75       3.28       2.08
H      -1.05       7.60       8.09
H       1.63       1.87       2.51
H       1.00      -0.47       3.26
H       0.12       4.51      10.66
H       4.93       0.20       4.66
H       2.25       5.93      10.23
C       0.70      -1.28       8.86
C       0.42       8.06       9.53
C       1.67       2.78       1.90
C       0.35       3.52       2.06
C       3.18       9.07       3.88
C       3.46      -0.27       3.22
C       2.20       5.02      10.85
C       3.52       4.27      10.68
O       1.60       1.37       8.71
O       1.67      -0.05       6.64
O       5.15       0.83       7.51
O       5.46      -1.33       9.84
O       3.13      -1.28       8.91
O       0.47       7.46      10.61
O       3.03       0.10      12.49
O       0.92       0.91       0.19
O       0.92       1.43      12.01
O       2.75       3.60       2.30
O       5.04       2.80       1.94
O       0.33       4.76       2.32
O       2.27       6.43       4.04
O       2.20       7.85       6.11
O      -1.27       6.97       5.24
O      -1.58       9.12       2.91
O       0.74       9.07       3.84
O       3.40       0.33       2.13
O       0.85       7.70       0.25
O       2.96       6.88      12.55
O       2.95       6.37       0.74
O       1.13       4.19      10.45
O      -1.16       4.99      10.81
O       3.54       3.04      10.43
