28

N      13.35       7.67      16.54
N      13.53       8.19      14.40
N      16.01      12.13      10.20
N      16.02      13.39       8.39
C      13.26       8.67      15.65
C      13.67       6.52      15.84
C      13.79       6.83      14.51
C      13.56       8.96      13.16
C      14.75       9.93      13.07
C      14.75      10.63      11.71
C      15.83      11.70      11.59
H      13.02       9.70      15.86
H      14.00       6.22      13.65
H      13.59       8.24      12.34
H      12.62       9.52      13.07
H      14.68      10.67      13.88
H      15.68       9.38      13.22
H      13.77      11.09      11.52
H      14.90       9.87      10.92
H      15.57      12.60      12.17
H      13.78       5.58      16.36
H      16.80      11.34      11.96
C      15.70      13.35       9.70
H      15.25      14.14      10.29
C      16.54      11.36       9.17
H      16.88      10.35       9.34
C      16.54      12.15       8.06
H      16.87      11.94       7.04
