142

Mn       2.30       3.83       7.75
Co      -0.40       2.44       6.52
Co       5.01       5.23       8.97
Co      -3.78       3.83       7.75
H      -2.41       4.68      10.30
H      -2.38       6.44      12.03
H       0.82       8.41       9.90
H       0.75       6.64       8.16
H      -0.54      -1.20       8.87
H       0.00      -3.08      10.44
H       4.15      -3.40      12.10
H       3.31      -2.32      13.26
H       5.26      -4.69      13.94
H       4.25      -5.37      15.26
H       7.07       5.31       1.50
H       7.89       5.31       3.86
H       9.97       1.62       3.13
H       9.07       1.55       0.81
H       0.97      -4.13      13.92
H       1.98      -3.23      15.08
H       3.77      -1.18      11.37
H       3.21       0.66       9.81
H       4.14       4.00       3.83
H       5.28       3.49       1.68
H       2.54       0.24       0.99
H       1.39       0.78       3.16
H      -2.71       8.63      12.44
H      -1.66       7.81      13.64
H       7.02       2.98       5.19
H       6.99       1.23       3.47
H       3.78      -0.75       5.59
H       3.85       1.03       7.34
H       5.15       8.87       6.62
H       4.60      10.75       5.05
H       0.46      11.07       3.40
H       1.30       9.99       2.24
H      -0.65      12.36       1.55
H       0.35      13.04       0.23
H      -2.46       2.36      14.00
H      -3.28       2.36      11.63
H      -5.36       6.04      12.36
H      -4.47       6.12      14.68
H       3.63      11.80       1.57
H       2.62      10.89       0.41
H       0.84       8.85       4.13
H       1.39       7.01       5.69
H       0.46       3.67      11.66
H      -0.67       4.18      13.82
H       2.07       7.43      14.51
H       3.22       6.89      12.34
H       7.31      -0.97       3.05
H       6.27      -0.14       1.85
C      -0.89       5.57       9.09
C      -1.75       5.54      10.20
C      -1.72       6.52      11.17
C       0.10       7.60       9.96
C       0.05       6.62       8.99
C       3.11      -4.44      13.70
C       1.30      -0.15       9.25
C       0.39      -1.21       9.43
C       0.69      -2.25      10.29
C       1.90      -2.24      11.01
C       3.24      -3.27      12.71
C       4.37      -4.52      14.57
C       7.99       3.42       1.03
C       7.70       4.50       1.88
C       8.17       4.51       3.18
C       8.98       3.46       3.65
C       9.33       2.42       2.77
C       8.82       2.39       1.47
C       1.87      -4.19      14.56
C       2.82      -1.20      10.83
C       2.51      -0.16       9.95
C       1.99       2.73       4.90
C       2.69       2.43       3.62
C       3.78       3.19       3.19
C       4.42       2.91       1.99
C       3.96       1.84       1.20
C       2.88       1.06       1.62
C       2.25       1.36       2.82
C      -0.79       7.56      11.05
C      -1.73       8.66      12.94
C       9.36       3.35       5.08
C      -0.92       4.46       8.15
C       0.97       0.97       8.34
C       5.50       2.09       6.40
C       6.36       2.13       5.30
C       6.33       1.15       4.33
C       4.51       0.06       5.53
C       4.56       1.05       6.51
C       1.50      12.10       1.80
C       3.31       7.82       6.25
C       4.21       8.88       6.07
C       3.92       9.92       5.20
C       2.71       9.91       4.48
C       1.36      10.94       2.79
C       0.24      12.19       0.93
C      -3.38       4.25      14.47
C      -3.09       3.16      13.62
C      -3.56       3.16      12.31
C      -4.37       4.21      11.85
C      -4.72       5.24      12.73
C      -4.22       5.28      14.03
C       2.74      11.85       0.94
C       1.79       8.86       4.66
C       2.09       7.83       5.55
C       2.61       4.94      10.59
C       1.92       5.24      11.88
C       0.82       4.48      12.30
C       0.19       4.76      13.51
C       0.65       5.83      14.30
C       1.73       6.61      13.87
C       2.36       6.31      12.67
C       5.40       0.10       4.45
C       6.33      -0.99       2.55
C      -4.75       4.32      10.41
C       5.53       3.21       7.34
C       3.63       6.70       7.16
O       0.10       4.19       7.41
O       1.88       1.82       8.06
O       8.75       4.13       5.90
O       2.08      -3.28      11.87
O       4.49      -3.29      15.30
O      -1.97       2.44       5.39
O      -0.21       1.02       7.85
O       2.53       3.56       5.70
O       0.88       2.12       5.10
O      -1.92       3.64       8.06
O       4.58       1.49       0.01
O      -0.69       8.57      11.96
O       4.51       3.48       8.09
O       2.72       5.85       7.43
O      -4.14       3.54       9.59
O       2.53      10.95       3.62
O       0.11      10.96       0.20
O       6.58       5.23      10.11
O       4.82       6.65       7.65
O       2.08       4.11       9.79
O       3.72       5.55      10.40
O       6.53       4.02       7.43
O       0.02       6.18      15.48
O       5.29      -0.90       3.54
