22

H       8.24       7.09      17.93
H       7.97       6.87      20.30
H       9.47       2.32      21.15
H       8.59       2.50      16.30
H       9.67       0.35      19.80
H       9.28       0.43      17.36
C       8.74       5.20      16.13
C       7.70       4.58      21.66
C       8.33       4.74      20.33
C       8.45       4.96      17.54
C       8.72       3.61      19.55
C       8.64       3.70      18.14
C       8.29       6.10      18.35
C       8.20       5.98      19.72
C       9.18       2.40      20.12
C       8.78       2.52      17.37
C       9.36       1.27      19.33
C       9.15       1.32      17.96
O       8.35       6.30      15.65
O       6.88       5.46      22.10
O       9.64       4.49      15.56
O       7.80       3.43      22.19
