22

O       6.80       0.86       6.26
O       4.59      -1.05      12.75
O       4.59       1.05       6.12
H       7.45      -1.41       6.77
H       8.50      -0.14      11.40
H       9.71      -1.65       7.64
H      10.18      -1.09      10.00
H       3.71       0.73      10.84
H       3.69       1.19       8.44
C       4.55       0.43      10.23
C       4.51       0.61       8.85
C       7.63      -1.14       7.80
C       8.18      -0.49      10.44
C       8.92      -1.29       8.29
C       9.19      -0.97       9.61
C       5.67      -0.59      12.19
C       5.63       0.59       6.68
C       5.51       0.07       8.03
C       5.71      -0.09      10.81
C       6.63      -0.55       8.60
C       6.84      -0.38       9.97
O       6.80      -0.86      12.62
