22

O      12.36       4.08      12.62
O      13.86       3.21       6.26
O      13.31       6.08      12.75
O      15.12       5.04       6.12
H      11.56       3.79       6.77
H      12.14       2.24      11.40
H      10.23       1.94       7.64
H      10.48       1.26      10.00
H      15.28       5.95      10.84
H      15.69       5.74       8.44
C      14.60       5.37      10.23
C      14.78       5.32       8.85
C      11.70       3.49       7.80
C      11.99       2.69      10.44
C      10.93       2.45       8.29
C      11.08       2.06       9.61
C      13.16       4.92      12.19
C      14.21       4.36       6.68
C      13.81       4.72       8.03
C      13.58       4.63      10.81
C      12.72       4.06       8.60
C      12.76       3.80       9.97
