948

H       2.93      33.42      23.48
H       2.70      33.46      25.84
H       0.09      36.53      23.14
H      68.53      36.59      25.52
H      67.74      35.32      27.54
H      67.65      35.38      29.93
H       3.30      34.91      27.73
H       3.20      34.94      30.11
H       1.06      32.48      30.75
H       1.07      30.70      32.55
H       1.02      34.35      34.38
H       1.07      36.02      36.02
H       1.09      37.87      30.68
H       1.10      39.68      32.46
H      67.68      40.46      35.41
H      67.77      42.85      35.35
H       3.22      40.29      34.91
H       3.32      42.68      34.87
H       1.08      39.67      37.85
H       1.07      37.89      39.65
H       1.11      30.69      37.94
H       1.14      32.50      39.72
H       3.22      35.57      40.30
H       3.30      35.66      42.68
H      67.70      34.88      40.47
H      67.78      34.99      42.86
H       0.00      33.81      44.90
H       0.08      34.02      47.27
H       2.65      37.35      46.89
H       2.55      37.15      44.52
H      67.65      29.92      35.07
H      67.73      27.53      35.15
H       2.75      25.82      36.92
H       2.95      23.46      36.99
H      68.63      23.11      33.99
H      68.46      25.49      33.90
H       3.30      27.70      35.46
H       3.21      30.08      35.41
H       2.66      44.55      33.40
H       2.79      46.91      33.25
H      68.56      44.88      36.59
H       0.03      47.26      36.43
H       2.60      21.33      35.75
H       2.64      34.66      21.36
H       2.12      49.10      33.99
H       2.03      36.59      49.09
H      23.46       2.94      33.42
H      25.82       2.71      33.46
H      23.13       0.09      36.52
H      25.51      68.52      36.58
H      27.52      67.74      35.30
H      29.91      67.65      35.36
H      27.71       3.30      34.91
H      30.10       3.20      34.94
H      30.74       1.10      32.47
H      32.54       1.13      30.69
H      34.36       1.01      34.33
H      36.01       1.07      36.00
H      30.66       1.09      37.86
H      32.45       1.09      39.66
H      35.25      67.64      40.44
H      35.20      67.74      42.83
H      35.06       3.21      40.26
H      35.04       3.32      42.64
H      37.84       1.04      39.65
H      39.64       1.05      37.88
H      37.93       1.11      30.68
H      39.71       1.12      32.49
H      40.29       3.21      35.56
H      42.67       3.30      35.66
H      40.46      67.70      34.86
H      42.85      67.78      34.97
H      44.89       0.00      33.79
H      47.27       0.08      34.01
H      46.88       2.64      37.34
H      44.51       2.54      37.14
H      34.89      67.70      29.91
H      34.99      67.77      27.52
H      37.15       2.54      25.84
H      37.36       2.63      23.48
H      34.02       0.07      23.09
H      33.81      68.64      25.47
H      35.66       3.30      27.68
H      35.58       3.22      30.07
H      33.56       2.81      44.53
H      33.53       3.04      46.89
H      36.52      68.45      44.85
H      36.46       0.02      47.23
H      36.60       2.02      21.28
H      21.34       2.64      34.65
H      34.71       2.66      49.01
H      49.08       2.03      36.58
H      33.42      23.46       2.94
H      33.46      25.82       2.71
H      36.52      23.13       0.09
H      36.58      25.51      68.53
H      35.30      27.52      67.74
H      35.36      29.91      67.65
H      34.91      27.71       3.30
H      34.94      30.10       3.20
H      32.47      30.74       1.10
H      30.69      32.54       1.13
H      34.33      34.36       1.01
H      36.00      36.01       1.07
H      37.86      30.66       1.09
H      39.66      32.45       1.09
H      40.44      35.25      67.64
H      42.83      35.20      67.74
H      40.26      35.06       3.21
H      42.64      35.04       3.32
H      39.65      37.84       1.04
H      37.88      39.64       1.05
H      30.68      37.93       1.11
H      32.49      39.71       1.12
H      35.56      40.29       3.21
H      35.66      42.67       3.30
H      34.86      40.46      67.70
H      34.97      42.85      67.78
H      33.80      44.89       0.00
H      34.01      47.27       0.08
H      37.34      46.87       2.64
H      37.14      44.51       2.54
H      29.90      34.89      67.70
H      27.52      34.99      67.77
H      25.84      37.15       2.54
H      23.48      37.36       2.63
H      23.09      34.02       0.07
H      25.47      33.81      68.64
H      27.68      35.66       3.30
H      30.07      35.58       3.22
H      44.53      33.56       2.81
H      46.89      33.53       3.04
H      44.85      36.52      68.46
H      47.23      36.47       0.02
H      21.28      36.60       2.02
H      34.65      21.34       2.64
H      49.01      34.71       2.66
H      36.58      49.08       2.03
H      36.70      67.24      57.83
H      36.69      67.49      60.19
H      34.40       2.11      57.43
H      34.40       2.38      59.80
H      33.46       1.22      61.87
H      33.42       1.29      64.26
H      37.59       0.34      61.99
H      37.54       0.41      64.38
H      35.44      66.81      65.04
H      35.47      65.02      66.83
H      35.43       0.02       0.04
H      35.45       1.68       1.70
H      35.49       3.57      65.00
H      35.47       5.36      66.80
H      33.40       6.09       1.22
H      33.45       8.48       1.15
H      37.56       5.98       0.50
H      37.61       8.37       0.45
H      35.43       5.32       3.55
H      35.42       3.53       5.34
H      35.47      64.98       3.58
H      35.49      66.78       5.38
H      37.55       1.32       6.00
H      37.60       1.42       8.38
H      33.43       0.40       6.12
H      33.48       0.50       8.51
H      34.44      68.00      10.59
H      34.43      68.28      12.96
H      36.67       3.19      12.53
H      36.67       2.92      10.17
H      33.43      64.25       0.45
H      33.48      61.85       0.53
H      36.68      60.18       2.92
H      36.69      57.82       3.19
H      34.41      57.40      68.30
H      34.42      59.78      68.01
H      37.61      61.97       1.41
H      37.55      64.36       1.33
H      36.77      10.17      67.57
H      36.80      12.53      67.32
H      34.33      10.55       2.35
H      34.33      12.93       2.08
H      35.70      55.67       2.61
H      35.78      67.84      55.67
H      35.82      14.69      67.87
H      35.69       2.61      14.69
H      57.83      36.70      67.25
H      60.19      36.69      67.50
H      57.42      34.39       2.12
H      59.80      34.40       2.39
H      61.87      33.46       1.22
H      64.26      33.42       1.31
H      61.99      37.59       0.35
H      64.38      37.54       0.42
H      65.04      35.44      66.82
H      66.83      35.46      65.03
H       0.04      35.43       0.03
H       1.70      35.45       1.69
H      65.00      35.49       3.58
H      66.80      35.47       5.37
H       1.22      33.40       6.10
H       1.15      33.45       8.49
H       0.50      37.56       5.99
H       0.45      37.61       8.38
H       3.55      35.43       5.33
H       5.34      35.42       3.54
H       3.58      35.47      64.99
H       5.38      35.49      66.79
H       6.00      37.54       1.33
H       8.38      37.60       1.43
H       6.12      33.43       0.41
H       8.51      33.48       0.51
H      10.59      34.44      68.00
H      12.96      34.43      68.29
H      12.53      36.67       3.20
H      10.17      36.67       2.93
H       0.45      33.43      64.26
H       0.54      33.48      61.86
H       2.91      36.68      60.19
H       3.19      36.69      57.84
H      68.30      34.41      57.41
H      68.01      34.42      59.79
H       1.41      37.61      61.98
H       1.32      37.56      64.37
H      67.57      36.77      10.18
H      67.32      36.80      12.54
H       2.35      34.33      10.57
H       2.08      34.33      12.94
H       2.61      35.70      55.68
H      55.67      35.77      67.84
H      67.87      35.82      14.70
H      14.69      35.70       2.61
H      67.48      57.77      37.02
H      67.63      60.13      36.89
H       2.15      57.42      34.42
H       2.31      59.80      34.31
H       1.09      61.84      33.46
H       1.17      64.23      33.39
H       0.45      61.99      37.63
H       0.51      64.38      37.55
H      66.80      65.03      35.48
H      65.02      66.83      35.50
H       0.02       0.03      35.37
H       1.68       1.68      35.38
H       3.56      64.98      35.42
H       5.35      66.77      35.41
H       6.09       1.22      33.39
H       8.49       1.15      33.44
H       5.98       0.46      37.53
H       8.36       0.41      37.59
H       5.33       3.52      35.47
H       3.54       5.32      35.46
H      64.99       3.58      35.40
H      66.79       5.37      35.42
H       1.22       5.96      37.56
H       1.31       8.35      37.64
H       0.53       6.13      33.40
H       0.64       8.52      33.48
H      68.08      10.56      34.35
H      68.25      12.94      34.47
H       2.94      12.56      37.04
H       2.79      10.20      36.90
H      64.24       0.42      33.42
H      61.85       0.51      33.47
H      60.19       2.92      36.66
H      57.83       3.19      36.66
H      57.40      68.29      34.41
H      59.77      68.00      34.42
H      61.98       1.43      37.59
H      64.37       1.35      37.53
H      10.17      67.55      36.75
H      12.53      67.30      36.78
H      10.55       2.34      34.33
H      12.93       2.08      34.33
H      55.67       2.61      35.69
H      68.38      55.59      36.53
H      14.69      67.86      35.82
H       2.04      14.76      36.58
H      67.67      34.56      16.75
H       2.87      36.01      19.31
H       3.38      36.18      15.65
H       4.22      35.55      17.06
H       3.61      37.21      17.06
H      67.16      34.39      20.41
H      66.94      33.36      19.00
H      66.32      35.02      19.00
H       2.71      34.42      53.63
H      67.59      36.00      51.03
H      67.13      36.35      54.69
H      66.24      35.70      53.32
H      66.93      37.33      53.24
H       3.14      34.00      49.98
H       3.34      33.08      51.47
H       4.07      34.69      51.31
H      16.74      67.67      34.55
H      19.30       2.86      36.01
H      15.64       3.37      36.17
H      17.05       4.22      35.54
H      17.05       3.60      37.21
H      20.40      67.16      34.39
H      18.99      66.93      33.35
H      18.99      66.31      35.02
H      53.62       2.71      34.42
H      51.02      67.59      35.99
H      54.68      67.12      36.34
H      53.31      66.24      35.69
H      53.23      66.93      37.32
H      49.97       3.14      34.00
H      51.46       3.34      33.07
H      51.30       4.07      34.68
H      34.55      16.74      67.67
H      36.01      19.30       2.87
H      36.18      15.64       3.38
H      35.55      17.05       4.22
H      37.21      17.05       3.60
H      34.39      20.40      67.16
H      33.35      18.99      66.94
H      35.02      18.99      66.32
H      34.42      53.62       2.71
H      35.99      51.02      67.59
H      36.35      54.68      67.12
H      35.69      53.31      66.24
H      37.33      53.23      66.93
H      34.00      49.97       3.14
H      33.08      51.46       3.34
H      34.69      51.30       4.07
H      34.53      67.68      53.61
H      36.05       2.85      51.06
H      36.23       3.35      54.72
H      35.61       4.21      53.31
H      37.26       3.56      53.31
H      34.36      67.18      49.95
H      33.32      66.97      51.36
H      34.97      66.32      51.36
H      34.42       2.70      16.74
H      36.02      67.59      19.34
H      36.38      67.13      15.68
H      35.73      66.23      17.05
H      37.36      66.94      17.13
H      34.00       3.12      20.39
H      33.07       3.31      18.91
H      34.67       4.06      19.06
H      67.54      16.74      36.02
H       2.70      19.27      34.41
H       3.07      15.61      34.04
H       4.03      16.93      34.71
H       3.30      17.08      33.10
H      67.12      20.42      36.31
H      66.91      18.98      37.31
H      66.22      19.04      35.68
H       2.81      53.62      36.19
H      67.76      51.06      34.40
H      67.46      54.71      33.85
H      66.45      53.42      34.51
H      67.28      53.21      32.95
H       3.12      49.96      36.71
H       3.30      51.45      37.62
H       4.13      51.26      36.07
H      16.74      34.42       2.70
H      19.34      36.02      67.59
H      15.67      36.38      67.13
H      17.05      35.73      66.24
H      17.13      37.36      66.94
H      20.39      34.00       3.12
H      18.91      33.07       3.31
H      19.06      34.67       4.06
H      53.61      34.53      67.68
H      51.06      36.05       2.85
H      54.72      36.23       3.35
H      53.31      35.61       4.21
H      53.31      37.27       3.56
H      49.95      34.35      67.18
H      51.36      33.32      66.97
H      51.36      34.97      66.32
C       1.05      32.68      31.75
C       1.05      31.71      32.73
C       1.04      32.34      33.98
C       1.04      33.93      32.37
C       1.05      35.18      31.68
C       1.05      36.45      32.32
C       1.07      38.05      33.90
C       1.09      38.68      32.65
C       1.08      37.69      31.68
C       1.08      38.71      35.16
C       1.07      38.03      36.42
C       1.07      36.44      38.03
C       1.07      37.69      38.65
C       1.07      38.67      37.67
C       1.09      35.19      38.72
C       1.08      33.92      38.08
C       1.06      32.32      36.50
C       1.10      31.70      37.75
C       1.11      32.68      38.72
C       1.05      31.66      35.24
C       1.10      30.23      35.24
C       2.33      29.55      35.35
C       2.38      28.14      35.39
C       1.21      27.35      35.32
C      68.61      28.05      35.18
C      68.56      29.46      35.15
C       1.27      25.92      35.40
C       0.46      25.08      34.58
C       0.57      23.67      34.63
C       1.48      23.04      35.50
C       2.27      23.87      36.34
C       2.16      25.27      36.29
C       1.13      35.21      40.15
C       2.35      35.44      40.83
C       2.40      35.50      42.24
C       1.23      35.34      43.02
C       0.01      35.09      42.34
C      68.60      35.03      40.93
C       1.27      35.45      44.46
C       2.03      36.47      45.09
C       2.08      36.59      46.49
C       1.37      35.71      47.34
C       0.60      34.69      46.71
C       0.55      34.57      45.30
C       1.12      40.14      35.17
C      68.59      40.92      35.30
C       0.00      42.33      35.28
C       1.23      43.02      35.10
C       2.40      42.23      34.98
C       2.35      40.82      35.01
C       1.29      44.46      35.02
C       2.11      45.10      34.06
C       2.17      46.50      33.97
C       1.42      47.34      34.83
C       0.59      46.70      35.78
C       0.52      45.29      35.87
C       1.09      35.16      30.25
C      68.56      35.28      29.47
C       2.33      35.02      29.58
C       2.38      34.99      28.17
C       1.21      35.10      27.37
C      68.62      35.26      28.06
C       1.28      35.04      25.94
C       0.51      35.89      25.11
C       0.64      35.86      23.70
C       1.53      34.97      23.06
C       2.28      34.09      23.89
C       2.15      34.12      25.29
C       1.69      21.66      35.52
C       1.45      35.86      48.73
C       1.52      48.73      34.70
C       1.75      34.96      21.68
C      31.74       1.08      32.66
C      32.72       1.10      31.69
C      33.97       1.07      32.32
C      32.36       1.05      33.92
C      31.67       1.04      35.17
C      32.31       1.04      36.44
C      33.89       1.05      38.03
C      32.64       1.07      38.66
C      31.67       1.07      37.68
C      35.15       1.05      38.69
C      36.41       1.05      38.02
C      38.02       1.07      36.42
C      38.64       1.05      37.68
C      37.65       1.05      38.65
C      38.71       1.08      35.18
C      38.07       1.08      33.91
C      36.49       1.08      32.31
C      37.74       1.10      31.68
C      38.71       1.10      32.66
C      35.22       1.08      31.65
C      35.22       1.13      30.22
C      35.44       2.35      29.54
C      35.50       2.39      28.13
C      35.34       1.22      27.34
C      35.09       0.01      28.03
C      35.04      68.60      29.44
C      35.45       1.27      25.91
C      34.57       0.55      25.06
C      34.69       0.59      23.66
C      35.71       1.36      23.03
C      36.60       2.07      23.88
C      36.47       2.02      25.28
C      40.14       1.13      35.20
C      40.82       2.35      35.43
C      42.23       2.39      35.50
C      43.01       1.23      35.33
C      42.33       0.01      35.07
C      40.92      68.60      35.02
C      44.45       1.27      35.44
C      45.08       2.03      36.46
C      46.48       2.08      36.59
C      47.33       1.37      35.70
C      46.70       0.60      34.68
C      45.30       0.55      34.56
C      35.16       1.10      40.12
C      35.21      68.56      40.90
C      35.19      68.62      42.31
C      35.11       1.22      42.99
C      35.07       2.40      42.20
C      35.09       2.34      40.79
C      35.05       1.30      44.43
C      34.19       2.22      45.08
C      34.16       2.34      46.48
C      34.99       1.55      47.31
C      35.83       0.60      46.67
C      35.86       0.48      45.26
C      30.23       1.09      35.15
C      29.46      68.56      35.26
C      29.56       2.33      35.02
C      28.16       2.38      34.99
C      27.36       1.21      35.09
C      28.05      68.62      35.24
C      25.92       1.28      35.03
C      25.09       0.51      35.88
C      23.69       0.63      35.85
C      23.05       1.53      34.96
C      23.88       2.28      34.09
C      25.28       2.15      34.12
C      35.87       1.44      21.64
C      48.72       1.45      35.85
C      34.99       1.77      48.69
C      21.67       1.75      34.95
C      32.66      31.74       1.08
C      31.69      32.72       1.10
C      32.32      33.97       1.07
C      33.92      32.36       1.05
C      35.17      31.67       1.04
C      36.44      32.31       1.04
C      38.03      33.89       1.05
C      38.66      32.64       1.07
C      37.68      31.67       1.07
C      38.69      35.15       1.05
C      38.02      36.41       1.05
C      36.42      38.02       1.07
C      37.68      38.64       1.05
C      38.65      37.65       1.04
C      35.18      38.71       1.08
C      33.91      38.07       1.08
C      32.31      36.49       1.08
C      31.68      37.74       1.10
C      32.66      38.71       1.10
C      31.65      35.22       1.08
C      30.21      35.22       1.13
C      29.54      35.44       2.35
C      28.13      35.50       2.39
C      27.34      35.34       1.22
C      28.03      35.09       0.01
C      29.44      35.04      68.60
C      25.91      35.45       1.27
C      25.06      34.57       0.55
C      23.66      34.70       0.60
C      23.03      35.71       1.36
C      23.88      36.60       2.07
C      25.28      36.47       2.02
C      35.20      40.14       1.13
C      35.43      40.82       2.35
C      35.50      42.23       2.39
C      35.33      43.01       1.23
C      35.08      42.33       0.01
C      35.02      40.92      68.60
C      35.44      44.45       1.27
C      36.46      45.07       2.03
C      36.59      46.48       2.08
C      35.70      47.33       1.37
C      34.68      46.70       0.60
C      34.56      45.29       0.55
C      40.12      35.15       1.10
C      40.90      35.21      68.56
C      42.31      35.19      68.62
C      42.99      35.11       1.22
C      42.20      35.07       2.40
C      40.79      35.09       2.34
C      44.43      35.05       1.29
C      45.08      34.19       2.21
C      46.48      34.16       2.34
C      47.31      34.99       1.55
C      46.67      35.83       0.60
C      45.26      35.86       0.48
C      35.15      30.23       1.09
C      35.26      29.46      68.56
C      35.02      29.56       2.33
C      34.99      28.16       2.38
C      35.09      27.36       1.21
C      35.24      28.05      68.62
C      35.03      25.92       1.28
C      35.88      25.09       0.51
C      35.85      23.69       0.64
C      34.96      23.05       1.53
C      34.09      23.88       2.28
C      34.12      25.28       2.16
C      21.64      35.87       1.44
C      35.85      48.72       1.45
C      48.69      34.99       1.77
C      34.95      21.67       1.75
C      35.44      67.00      66.04
C      35.45      66.03      67.02
C      35.44      66.65      68.27
C      35.44      68.25      66.67
C      35.44       0.87      65.99
C      35.44       2.13      66.64
C      35.45       3.72      68.23
C      35.46       4.36      66.98
C      35.47       3.38      66.00
C      35.44       4.37       0.86
C      35.43       3.69       2.11
C      35.44       2.09       3.71
C      35.42       3.34       4.33
C      35.43       4.32       3.36
C      35.45       0.84       4.39
C      35.45      68.21       3.74
C      35.45      66.62       2.15
C      35.46      65.99       3.40
C      35.47      66.96       4.37
C      35.45      65.97       0.88
C      35.49      64.53       0.88
C      36.69      63.84       1.15
C      36.72      62.43       1.20
C      35.55      61.66       0.98
C      34.35      62.36       0.68
C      34.32      63.77       0.63
C      35.56      60.23       1.11
C      34.90      59.38       0.19
C      34.91      57.98       0.35
C      35.56      57.36       1.45
C      36.21      58.22       2.37
C      36.22      59.61       2.20
C      35.48       0.85       5.83
C      36.68       1.14       6.52
C      36.71       1.20       7.92
C      35.54       0.97       8.70
C      34.35       0.65       8.00
C      34.32       0.60       6.59
C      35.56       1.10      10.13
C      36.21       2.20      10.74
C      36.20       2.37      12.14
C      35.56       1.44      12.99
C      34.92       0.33      12.39
C      34.91       0.17      10.98
C      35.48       5.81       0.87
C      34.30       6.56       1.07
C      34.33       7.97       1.04
C      35.54       8.68       0.79
C      36.71       7.91       0.61
C      36.69       6.50       0.65
C      35.56      10.11       0.68
C      36.27      10.74      68.26
C      36.28      12.14      68.11
C      35.57      12.98       0.36
C      34.86      12.36       1.42
C      34.85      10.96       1.57
C      35.47       0.86      64.55
C      34.31       1.10      63.79
C      36.68       0.59      63.86
C      36.70       0.54      62.45
C      35.53       0.77      61.68
C      34.34       1.07      62.38
C      35.55       0.65      60.25
C      34.89       1.58      59.40
C      34.90       1.43      57.99
C      35.56       0.34      57.38
C      36.22      68.05      58.22
C      36.22      68.21      59.62
C      35.53      55.99       1.68
C      35.54       1.68      14.37
C      35.57      14.36       0.14
C      35.55       0.12      55.99
C      66.04      35.44      67.01
C      67.02      35.45      66.04
C      68.27      35.44      66.66
C      66.67      35.44      68.27
C      65.99      35.44       0.88
C      66.64      35.44       2.15
C      68.23      35.45       3.74
C      66.98      35.46       4.37
C      66.00      35.47       3.39
C       0.86      35.44       4.38
C       2.11      35.43       3.70
C       3.71      35.44       2.10
C       4.33      35.42       3.35
C       3.36      35.43       4.33
C       4.39      35.45       0.85
C       3.74      35.45      68.22
C       2.15      35.46      66.63
C       3.40      35.47      66.00
C       4.37      35.47      66.97
C       0.88      35.45      65.98
C       0.87      35.49      64.54
C       1.14      36.69      63.85
C       1.20      36.72      62.44
C       0.98      35.55      61.67
C       0.68      34.35      62.37
C       0.63      34.32      63.78
C       1.11      35.56      60.24
C       0.19      34.90      59.39
C       0.35      34.91      57.99
C       1.44      35.56      57.38
C       2.37      36.21      58.23
C       2.20      36.22      59.62
C       5.83      35.48       0.86
C       6.52      36.68       1.15
C       7.92      36.71       1.21
C       8.70      35.54       0.98
C       8.00      34.35       0.66
C       6.59      34.32       0.61
C      10.13      35.56       1.11
C      10.74      36.21       2.21
C      12.14      36.20       2.38
C      12.99      35.56       1.45
C      12.39      34.92       0.34
C      10.98      34.91       0.18
C       0.87      35.48       5.82
C       1.07      34.30       6.58
C       1.04      34.33       7.99
C       0.79      35.54       8.69
C       0.61      36.71       7.92
C       0.65      36.69       6.51
C       0.67      35.56      10.12
C      68.26      36.27      10.75
C      68.11      36.28      12.15
C       0.36      35.57      12.99
C       1.42      34.87      12.37
C       1.57      34.85      10.97
C      64.55      35.47       0.87
C      63.79      34.31       1.11
C      63.86      36.68       0.60
C      62.45      36.70       0.55
C      61.68      35.53       0.78
C      62.38      34.34       1.08
C      60.25      35.55       0.66
C      59.40      34.89       1.58
C      57.99      34.90       1.43
C      57.38      35.56       0.34
C      58.22      36.22      68.06
C      59.62      36.22      68.22
C       1.68      35.53      56.00
C      14.37      35.54       1.68
C       0.14      35.57      14.37
C      56.00      35.55       0.12
C      67.00      66.04      35.46
C      66.02      67.02      35.47
C      66.65      68.26      35.43
C      68.25      66.66      35.43
C       0.86      65.97      35.42
C       2.13      66.62      35.41
C       3.72      68.21      35.41
C       4.35      66.96      35.41
C       3.37      65.98      35.41
C       4.37       0.83      35.42
C       3.69       2.09      35.42
C       2.10       3.69      35.43
C       3.35       4.32      35.44
C       4.32       3.34      35.45
C       0.85       4.38      35.42
C      68.22       3.73      35.41
C      66.62       2.15      35.42
C      66.00       3.39      35.41
C      66.97       4.37      35.41
C      65.97       0.88      35.43
C      64.54       0.87      35.47
C      63.85       1.16      36.67
C      62.44       1.21      36.70
C      61.66       0.97      35.53
C      62.36       0.66      34.34
C      63.77       0.62      34.30
C      60.23       1.11      35.55
C      59.38       0.18      34.90
C      57.98       0.34      34.90
C      57.37       1.44      35.55
C      58.22       2.37      36.19
C      59.62       2.20      36.20
C       0.86       5.82      35.47
C       1.09       6.49      36.69
C       1.15       7.90      36.74
C       0.99       8.69      35.57
C       0.74       8.00      34.35
C       0.69       6.59      34.30
C       1.09      10.12      35.62
C       2.10      10.76      36.39
C       2.19      12.16      36.47
C       1.29      13.00      35.77
C       0.29      12.37      34.99
C       0.20      10.97      34.91
C       5.81       0.84      35.45
C       6.57       1.06      34.28
C       7.98       1.03      34.32
C       8.68       0.78      35.52
C       7.91       0.58      36.69
C       6.50       0.62      36.66
C      10.11       0.66      35.55
C      10.74      68.25      36.26
C      12.14      68.09      36.26
C      12.98       0.35      35.56
C      12.36       1.41      34.86
C      10.96       1.56      34.85
C       0.84      64.53      35.46
C       1.02      63.77      34.29
C       0.64      63.85      36.68
C       0.59      62.44      36.72
C       0.76      61.66      35.55
C       0.98      62.36      34.33
C       0.67      60.22      35.59
C       1.56      59.39      34.87
C       1.47      57.98      34.94
C       0.48      57.34      35.73
C      68.22      58.18      36.44
C      68.31      59.58      36.37
C      55.99       1.68      35.52
C       1.41      14.40      35.90
C      14.36       0.13      35.56
C       0.37      55.95      35.85
C       0.90      35.26      19.47
C      68.41      34.86      18.71
C      68.48      34.88      17.29
C       1.00      35.32      16.60
C       2.13      35.72      17.36
C       2.06      35.69      18.77
C       3.40      36.19      16.74
C      67.14      34.38      19.32
C       0.88      35.17      50.91
C       1.98      34.70      51.67
C       1.93      34.79      53.09
C       0.81      35.32      53.77
C      68.33      35.76      53.00
C      68.39      35.68      51.58
C      67.09      36.32      53.60
C       3.20      34.08      51.07
C      19.45       0.90      35.25
C      18.70      68.41      34.85
C      17.28      68.48      34.87
C      16.59       0.99      35.31
C      17.34       2.12      35.71
C      18.76       2.05      35.69
C      16.73       3.39      36.18
C      19.31      67.14      34.38
C      50.90       0.88      35.17
C      51.66       1.98      34.69
C      53.08       1.93      34.78
C      53.76       0.81      35.32
C      52.99      68.33      35.75
C      51.57      68.39      35.67
C      53.59      67.09      36.31
C      51.06       3.20      34.08
C      35.26      19.45       0.90
C      34.85      18.69      68.41
C      34.88      17.28      68.48
C      35.31      16.59       1.00
C      35.72      17.35       2.13
C      35.69      18.76       2.06
C      36.19      16.73       3.40
C      34.38      19.31      67.14
C      35.17      50.90       0.88
C      34.69      51.66       1.98
C      34.78      53.08       1.93
C      35.32      53.76       0.81
C      35.75      52.99      68.33
C      35.67      51.57      68.39
C      36.31      53.59      67.09
C      34.08      51.06       3.20
C      35.26       0.90      50.90
C      34.84      68.41      51.66
C      34.87      68.48      53.07
C      35.32       0.99      53.77
C      35.74       2.11      53.01
C      35.72       2.05      51.60
C      36.24       3.37      53.63
C      34.35      67.15      51.04
C      35.18       0.87      19.46
C      34.70       1.97      18.70
C      34.79       1.92      17.28
C      35.33       0.80      16.60
C      35.77      68.33      17.37
C      35.69      68.39      18.78
C      36.34      67.09      16.76
C      34.08       3.18      19.30
C       0.79      19.44      35.30
C      68.31      18.70      35.75
C      68.35      17.28      35.69
C       0.84      16.58      35.21
C       1.95      17.32      34.72
C       1.91      18.74      34.78
C       3.15      16.69      34.11
C      67.08      19.33      36.29
C       0.97      50.91      35.39
C       2.05      51.67      35.92
C       2.03      53.08      35.80
C       0.96      53.76      35.20
C      68.52      53.01      34.66
C      68.54      51.60      34.78
C      67.36      53.63      33.96
C       3.21      51.04      36.62
C      19.46      35.18       0.88
C      18.70      34.70       1.97
C      17.28      34.79       1.92
C      16.60      35.33       0.80
C      17.37      35.77      68.33
C      18.78      35.69      68.39
C      16.76      36.34      67.10
C      19.30      34.08       3.18
C      50.90      35.26       0.90
C      51.66      34.84      68.42
C      53.07      34.86      68.48
C      53.77      35.32       0.99
C      53.01      35.75       2.12
C      51.60      35.72       2.05
C      53.63      36.24       3.38
C      51.04      34.35      67.16
N       1.03      33.67      33.70
N       1.05      36.72      33.65
N       1.06      36.70      36.70
N       1.05      33.65      36.75
N      33.69       1.04      33.65
N      33.64       1.03      36.70
N      36.69       1.06      36.69
N      36.74       1.07      33.64
N      33.65      33.69       1.04
N      36.70      33.63       1.03
N      36.69      36.69       1.06
N      33.64      36.74       1.07
N      35.43      67.98      68.00
N      35.43       2.40      67.96
N      35.44       2.36       2.38
N      35.44      67.95       2.41
N      68.00      35.43      67.99
N      67.96      35.43       2.41
N       2.38      35.44       2.37
N       2.41      35.44      67.96
N      67.98      67.99      35.40
N       2.39      67.95      35.41
N       2.36       2.36      35.41
N      67.95       2.41      35.42
N       0.85      35.25      20.81
N       1.05      35.33      15.25
N       0.84      35.11      49.57
N       0.76      35.36      55.11
N      20.80       0.85      35.25
N      15.24       1.04      35.32
N      49.56       0.84      35.10
N      55.10       0.76      35.35
N      35.25      20.80       0.85
N      35.33      15.24       1.05
N      35.10      49.56       0.84
N      35.36      55.10       0.76
N      35.26       0.85      49.56
N      35.34       1.03      55.11
N      35.11       0.83      20.79
N      35.37       0.75      15.26
N       0.76      20.79      35.30
N       0.77      15.24      35.17
N       0.90      49.58      35.45
N       1.03      55.10      35.14
N      20.79      35.11       0.83
N      15.26      35.37       0.76
N      49.56      35.26       0.86
N      55.11      35.34       1.04
