462

H      11.25      11.16       9.52
H      12.66      12.41       8.07
H       9.20       9.58       6.18
H      10.60      10.85       4.73
H      10.52      13.69       5.02
H      11.43      15.35       3.56
H      14.38      12.07       5.60
H      15.29      13.73       4.12
H      14.47      16.68       5.31
H      15.58      18.97       5.31
H      15.03      17.82       1.43
H      15.03      17.82      68.84
H      12.79      13.24       1.51
H      12.70      13.29      68.75
H      11.25      15.38      66.73
H      10.39      13.76      65.19
H      15.16      13.89      66.10
H      14.30      12.31      64.53
H      14.38      16.74      64.96
H      15.67      18.92      64.96
H      17.26      22.40       1.51
H      17.36      22.35      68.74
H      18.80      20.27      66.73
H      19.67      21.88      65.18
H      14.90      21.76      66.10
H      15.76      23.34      64.53
H      17.15      25.38      64.55
H      17.68      26.91      62.82
H      20.19      24.02      61.02
H      19.59      22.46      62.71
H      14.76      21.93       4.11
H      15.67      23.59       5.60
H      19.45      24.80       4.73
H      20.85      26.08       6.18
H      18.80      24.49       9.52
H      17.39      23.24       8.06
H      19.53      21.96       5.02
H      18.62      20.29       3.56
H      12.91      10.27      64.54
H      12.38       8.74      62.82
H      10.47      13.19      62.71
H       9.87      11.62      61.02
H      27.23      24.43      32.78
H      27.60      22.58      31.32
H      26.88      27.00      29.44
H      27.29      25.15      27.99
H      29.79      23.80      28.27
H      30.77      22.18      26.81
H      26.45      21.27      28.86
H      27.43      19.65      27.37
H      30.40      18.88      28.56
H      31.83      16.78      28.56
H      31.11      17.83      24.68
H      31.11      17.83      22.33
H      28.26      22.05      24.77
H      28.35      22.11      22.24
H      30.88      22.32      20.22
H      29.92      23.88      18.68
H      27.64      19.69      19.59
H      26.70      21.21      18.02
H      30.49      18.93      18.45
H      31.73      16.72      18.45
H      33.96      13.60      24.77
H      33.87      13.54      22.24
H      31.34      13.34      20.22
H      32.30      11.78      18.67
H      34.58      15.97      19.59
H      35.52      14.44      18.02
H      36.59      12.21      18.04
H      37.65      10.99      16.31
H      33.90      10.26      14.51
H      32.84      11.56      16.20
H      34.80      16.01      27.36
H      35.78      14.39      28.85
H      34.94      10.51      27.98
H      35.35       8.66      29.44
H      35.01      11.23      32.77
H      34.63      13.08      31.32
H      32.44      11.86      28.28
H      31.45      13.48      26.82
H      25.63      23.45      18.04
H      24.57      24.67      16.31
H      29.38      24.10      16.20
H      28.32      25.40      14.51
H      30.73       3.96      56.03
H      28.95       4.55      54.57
H      33.13       2.98      52.69
H      31.33       3.55      51.24
H      28.90       2.06      51.53
H      27.01       2.02      50.07
H      28.39       6.22      52.11
H      26.49       6.18      50.62
H      24.34       3.99      51.82
H      21.81       3.81      51.82
H      23.07       3.90      47.94
H      23.08       3.89      45.59
H      28.16       4.26      48.02
H      28.16       4.15      45.49
H      27.08       1.85      43.48
H      28.91       1.90      41.93
H      26.42       5.97      42.85
H      28.21       6.02      41.28
H      24.34       3.89      41.71
H      21.81       3.92      41.71
H      17.99       3.54      48.02
H      17.99       3.65      45.49
H      19.07       5.94      43.48
H      17.24       5.89      41.93
H      19.73       1.82      42.84
H      17.94       1.77      41.27
H      15.47       1.96      41.29
H      13.88       1.65      39.57
H      15.13       5.27      37.77
H      16.78       5.53      39.46
H      19.66       1.62      50.62
H      17.76       1.58      52.11
H      14.82       4.24      51.24
H      13.02       4.81      52.69
H      15.41       3.83      56.03
H      17.20       3.23      54.57
H      17.24       5.73      51.52
H      19.13       5.77      50.07
H      30.68       5.84      41.29
H      32.27       6.14      39.57
H      29.37       2.26      39.46
H      31.03       2.53      37.77
H      11.18      10.74      59.18
H      10.84       7.30      61.60
H      12.32       9.05      54.96
H      11.59      10.46      56.75
H      13.18       6.85      54.23
H      12.93       3.57      56.87
H      26.90      24.71      12.67
H      24.09      26.72      15.09
H      24.86      24.56       8.45
H      26.45      24.49      10.24
H      22.53      24.92       7.72
H      19.82      26.77      10.36
H      31.14       4.11      35.92
H      34.29       5.53      38.34
H      32.02       5.95      31.71
H      31.17       4.61      33.50
H      33.50       7.79      30.98
H      36.47       9.21      33.62
H      18.88      24.91      59.17
H       3.13       0.48      61.60
H      17.73      26.60      54.96
H      18.46      25.19      56.75
H       0.79       0.94      54.23
H      33.21       4.22      56.88
H      35.32      10.95      12.66
H       5.96       8.94      15.09
H      37.36      11.10       8.45
H      35.78      11.18      10.24
H       7.52      10.74       7.72
H      10.23       8.88      10.37
H      15.01       3.69      35.92
H      11.86       2.27      38.34
H      14.12       1.85      31.71
H      14.98       3.19      33.50
H      12.64       0.01      30.98
H      25.77      26.45      33.62
C      14.72      17.20       4.47
C      15.32      18.45       4.47
C      15.52      18.84       3.14
C      14.54      16.81       3.14
C      13.94      15.59       2.72
C      13.72      15.21       1.37
C      13.64      15.25      68.90
C      13.07      14.05      69.33
C      13.13      14.02       0.94
C      13.79      15.67      67.55
C      14.46      16.85      67.13
C      15.60      18.80      67.13
C      15.38      18.42      65.81
C      14.67      17.23      65.81
C      16.27      19.98      67.55
C      16.42      20.39      68.90
C      16.34      20.44       1.37
C      16.93      21.63       0.94
C      16.99      21.60      69.32
C      16.11      20.06       2.72
C      16.60      20.95       3.72
C      17.99      20.97       4.01
C      18.52      21.95       4.85
C      17.69      22.93       5.43
C      16.30      22.88       5.19
C      15.76      21.91       4.32
C      18.27      23.93       6.26
C      18.05      23.90       7.65
C      18.89      24.65       8.51
C      19.94      25.44       7.99
C      20.08      25.54       6.59
C      19.25      24.79       5.73
C      16.77      20.85      66.54
C      18.15      20.90      66.25
C      18.66      21.85      65.35
C      17.80      22.78      64.71
C      16.42      22.70      64.99
C      15.91      21.76      65.90
C      18.31      23.76      63.80
C      19.23      23.41      62.78
C      19.57      24.33      61.78
C      19.01      25.63      61.75
C      18.15      26.00      62.82
C      17.82      25.08      63.83
C      13.29      14.79      66.55
C      11.90      14.74      66.26
C      11.40      13.80      65.35
C      12.25      12.87      64.71
C      13.64      12.94      64.99
C      14.15      13.89      65.90
C      11.75      11.89      63.80
C      12.25      10.56      63.82
C      11.91       9.65      62.82
C      11.05      10.01      61.75
C      10.48      11.31      61.78
C      10.83      12.23      62.79
C      13.45      14.70       3.72
C      12.07      14.68       4.00
C      14.29      13.74       4.33
C      13.76      12.77       5.19
C      12.37      12.72       5.44
C      11.53      13.70       4.85
C      11.79      11.72       6.26
C      10.80      10.86       5.73
C       9.98      10.11       6.59
C      10.11      10.21       8.00
C      11.17      11.00       8.51
C      12.00      11.74       7.66
C      30.73      18.40      27.72
C      31.50      17.26      27.72
C      31.75      16.90      26.39
C      30.48      18.76      26.39
C      29.72      19.89      25.98
C      29.50      20.27      24.62
C      29.58      20.32      22.39
C      28.82      21.41      22.82
C      28.76      21.37      24.19
C      29.86      19.98      21.04
C      30.55      18.81      20.62
C      31.67      16.85      20.62
C      31.44      17.22      19.30
C      30.77      18.43      19.30
C      32.36      15.68      21.04
C      32.64      15.34      22.39
C      32.72      15.39      24.62
C      33.46      14.28      24.19
C      33.40      14.25      22.82
C      32.51      15.77      25.98
C      33.03      14.90      26.98
C      32.35      13.70      27.26
C      32.94      12.74      28.10
C      34.21      12.97      28.69
C      34.86      14.20      28.44
C      34.28      15.15      27.58
C      34.78      11.97      29.51
C      34.86      12.17      30.91
C      35.09      11.08      31.77
C      35.25       9.77      31.25
C      35.27       9.60      29.84
C      35.03      10.69      28.99
C      32.86      14.80      20.03
C      32.21      13.58      19.75
C      32.78      12.67      18.84
C      34.01      12.95      18.20
C      34.64      14.19      18.48
C      34.08      15.10      19.39
C      34.61      12.03      17.29
C      33.85      11.40      16.27
C      34.48      10.64      15.27
C      35.88      10.48      15.24
C      36.63      11.04      16.31
C      36.00      11.79      17.31
C      29.36      20.85      20.03
C      30.01      22.07      19.75
C      29.44      22.99      18.84
C      28.21      22.71      18.20
C      27.58      21.47      18.48
C      28.14      20.56      19.39
C      27.61      23.63      17.29
C      26.22      23.87      17.31
C      25.59      24.62      16.31
C      26.34      25.18      15.24
C      27.74      25.02      15.27
C      28.37      24.26      16.27
C      29.20      20.76      26.98
C      29.87      21.97      27.26
C      27.95      20.51      27.58
C      27.37      21.46      28.45
C      28.02      22.69      28.69
C      29.29      22.92      28.10
C      27.45      23.69      29.52
C      27.20      24.98      28.99
C      26.96      26.06      29.85
C      26.98      25.89      31.25
C      27.14      24.58      31.77
C      27.37      23.49      30.91
C      23.76       3.95      50.97
C      22.38       3.85      50.97
C      21.95       3.81      49.65
C      24.20       3.98      49.65
C      25.55       4.08      49.23
C      25.99       4.07      47.88
C      26.00       3.98      45.64
C      27.32       4.09      46.07
C      27.32       4.16      47.45
C      25.56       3.90      44.29
C      24.20       3.89      43.88
C      21.95       3.91      43.88
C      22.39       3.92      42.55
C      23.77       3.89      42.55
C      20.59       3.89      44.29
C      20.15       3.81      45.64
C      20.16       3.72      47.88
C      18.83       3.63      47.45
C      18.83       3.70      46.07
C      20.59       3.72      49.23
C      19.58       3.70      50.23
C      18.87       4.89      50.51
C      17.75       4.86      51.35
C      17.32       3.65      51.94
C      18.06       2.47      51.70
C      19.17       2.49      50.84
C      16.17       3.65      52.76
C      16.29       3.47      54.16
C      15.24       3.83      55.02
C      14.02       4.35      54.50
C      13.86       4.41      53.10
C      14.93       4.07      52.24
C      19.58       3.89      43.29
C      18.85       5.07      43.00
C      17.77       5.03      42.09
C      17.40       3.83      41.45
C      18.16       2.66      41.73
C      19.23       2.69      42.64
C      16.30       3.77      40.54
C      16.13       4.75      39.53
C      15.16       4.58      38.52
C      14.32       3.44      38.49
C      14.43       2.52      39.56
C      15.39       2.69      40.57
C      26.57       3.90      43.29
C      27.30       2.73      43.00
C      28.38       2.76      42.09
C      28.76       3.97      41.46
C      28.00       5.14      41.74
C      26.93       5.11      42.65
C      29.85       4.03      40.55
C      30.76       5.11      40.57
C      31.72       5.28      39.56
C      31.83       4.36      38.49
C      30.99       3.22      38.52
C      30.02       3.05      39.53
C      26.57       4.09      50.23
C      27.27       2.91      50.51
C      26.98       5.30      50.84
C      28.09       5.33      51.70
C      28.83       4.15      51.94
C      28.40       2.93      51.36
C      29.98       4.14      52.77
C      31.22       3.72      52.24
C      32.28       3.38      53.10
C      32.12       3.44      54.50
C      30.91       3.96      55.02
C      29.85       4.31      54.16
C      10.96       9.17      60.59
C      10.95       7.76      60.69
C      11.44       7.49      58.37
C      11.36       8.90      58.18
C      11.11       9.72      59.29
C      11.89       6.66      57.32
C      12.72       4.54      56.61
C      13.14       5.06      55.36
C      12.84       6.41      55.09
C      12.23       7.23      56.07
C      12.06       8.62      55.85
C      11.63       9.45      56.90
C      25.66      25.68      14.08
C      24.44      26.39      14.18
C      23.96      26.10      11.86
C      25.22      25.47      11.67
C      26.06      25.28      12.78
C      23.02      26.13      10.81
C      20.76      26.47      10.10
C      21.00      25.85       8.85
C      22.32      25.43       8.59
C      23.34      25.55       9.56
C      24.62      25.00       9.35
C      25.55      24.96      10.40
C      32.60       4.70      37.34
C      33.83       5.39      37.44
C      33.81       5.95      35.12
C      32.64       5.18      34.92
C      32.05       4.56      36.04
C      34.31       6.76      34.07
C      35.73       8.55      33.36
C      35.08       8.64      32.11
C      34.05       7.71      31.84
C      33.64       6.77      32.81
C      32.53       5.93      32.60
C      32.02       5.15      33.65
C      19.10      26.47      60.59
C       3.02       0.02      60.69
C       2.53       0.29      58.37
C      18.70      26.75      58.18
C      18.95      25.92      59.29
C       2.08       1.12      57.32
C      33.42       3.25      56.61
C      33.01       2.73      55.37
C       1.13       1.37      55.10
C       1.74       0.55      56.07
C      17.99      27.03      55.86
C      18.42      26.20      56.91
C      36.56       9.98      14.08
C       5.61       9.26      14.18
C       6.09       9.56      11.86
C      37.01      10.19      11.67
C      36.17      10.39      12.78
C       7.03       9.53      10.81
C       9.29       9.19      10.11
C       9.05       9.80       8.86
C       7.73      10.22       8.59
C       6.71      10.11       9.56
C      37.60      10.66       9.35
C      36.67      10.70      10.39
C      13.55       3.10      37.34
C      12.32       2.40      37.44
C      12.33       1.84      35.12
C      13.51       2.62      34.92
C      14.10       3.25      36.04
C      11.84       1.04      34.07
C      26.50      27.12      33.36
C      27.15      27.02      32.11
C      12.10       0.09      31.84
C      12.50       1.03      32.81
C      13.62       1.86      32.60
C      14.12       2.65      33.65
N      15.03      17.82       2.39
N      14.01      15.91       0.25
N      15.03      17.82      67.89
N      16.05      19.74       0.25
N      31.11      17.83      25.64
N      29.96      19.67      23.51
N      31.11      17.83      21.38
N      32.26      15.99      23.51
N      23.07       3.90      48.90
N      25.24       3.97      46.76
N      23.08       3.90      44.63
N      20.91       3.82      46.76
N      11.21       6.99      59.61
N      12.14       5.34      57.53
N      23.64      26.55      13.10
N      21.75      26.57      11.02
N      34.37       6.01      36.36
N      35.33       7.64      34.28
N       2.76       0.79      59.61
N       1.83       2.44      57.54
N       6.41       9.11      13.10
N       8.30       9.08      11.03
N      11.78       1.79      36.36
N      10.82       0.16      34.28
