26

C       6.00       6.56      17.80
O       8.05       4.97      21.95
C       6.06       6.63      19.30
O       6.73       6.87      21.78
C       5.80       4.06      18.14
C       7.96       5.08      17.56
C       6.47       5.16      17.29
C       6.85       5.43      19.90
C       5.96       4.21      19.67
C       8.16       5.12      19.10
O       6.20       3.76      15.32
O       5.23       5.87      15.46
C       6.05       4.96      15.86
C       7.16       5.72      21.34
H       4.96       6.81      17.51
H       6.62       7.34      17.34
H       6.47       7.60      19.58
H       5.03       6.64      19.71
H       4.78       4.19      17.88
H       4.98       4.35      20.17
H       8.35       4.12      17.14
H       8.50       5.91      17.06
H       8.98       5.79      19.37
H       8.45       4.10      19.39
H       6.17       3.06      17.82
H       6.42       3.30      20.11
