20

C      15.18      -4.22       7.32
C      16.00      -5.53       9.17
N      12.88      -9.94      11.05
C       7.94      -6.51       8.37
C       9.16      -4.62       9.24
C      11.18      -9.08       4.49
C      13.23     -10.26       4.96
C      11.89     -10.78      11.53
I      14.74      -8.78       8.05
I      12.33      -6.19      10.80
I      11.79      -5.76       6.34
I      10.30      -9.47       8.38
C      14.20     -10.10      11.47
N      14.97      -5.17       8.31
Cu      12.38      -8.29       7.00
Cu      13.33      -6.33       8.36
Cu      10.86      -6.91       8.65
Cu      12.55      -8.59       9.58
N       9.13      -5.96       8.85
N      12.31      -9.26       5.28
