14

Cu       8.13      23.17       1.30
N       8.76      24.16       2.95
I       6.62      21.16      -2.22
Cu       8.13      23.17      -1.30
N       8.76      24.16      -2.95
I       6.62      21.16       2.22
Cu       7.99      20.95       0.00
Cu       5.88      22.40       0.00
C      10.09      24.51       3.14
C      10.09      24.51      -3.14
C       7.77      24.73      -3.75
C       7.77      24.73       3.75
I      10.31      22.53       0.00
I       6.56      24.95       0.00
