13

O       7.15       4.93       4.30
O       6.88       6.92       3.27
N       9.11       8.25       7.53
H      10.06       9.44       6.13
H       9.05       8.29       4.14
H       7.14       5.57       6.90
H       8.15       6.89       8.77
C       9.38       8.60       6.25
C       8.83       7.95       5.15
C       7.98       6.86       5.37
C       7.77       6.44       6.69
C       8.33       7.16       7.73
C       7.29       6.18       4.24
