13

N       6.12      -2.00       4.81
O       8.08       1.32       8.04
O       8.35      -0.68       9.07
C       5.85      -2.35       6.09
C       6.40      -1.71       7.19
C       7.25      -0.61       6.96
C       7.47      -0.19       5.65
C       6.90      -0.92       4.61
C       7.94       0.06       8.10
H       5.17      -3.19       6.21
H       6.19      -2.04       8.20
H       8.09       0.67       5.43
H       7.08      -0.64       3.57
