13

Ho       5.45       5.95      17.62
O       5.43       7.33      19.35
C       3.89       4.12      16.49
O       4.27       3.95      17.70
O       7.27       4.55      17.75
C       6.77       9.06      15.24
C       3.40       2.97      15.67
C       6.19       7.87      15.91
O       4.04       5.26      15.91
O       6.75       6.72      15.84
O       5.11       8.02      16.60
C       5.30       8.57      19.69
C       8.27       5.28      18.05
