11

O       5.72       8.96       5.24
Cu       7.23       7.67       5.21
C       8.90       5.81       4.24
C       8.12      10.38       5.84
N       8.50       9.25       5.23
N       5.97       6.09       5.41
C       5.40       9.41       4.07
C       6.24       5.07       6.24
C       9.69       9.23       4.59
O       8.78       6.42       5.37
C       4.93       5.98       4.56
