13

O       6.08       1.58       6.55
O       8.81       0.14       6.36
C      10.44       1.63       8.57
Ho       7.61       0.94       8.19
O       6.45       2.96       8.26
C       8.87      -2.21       5.82
O       7.60      -0.36       9.97
C       8.28      -1.02       6.49
C       7.47      -1.61      10.27
O       7.24      -1.17       7.22
C       6.00       2.74       7.08
O       9.43       2.31       8.19
C       5.50       3.88       6.24
