16

V       0.57       4.53       9.93
V       4.03       4.83      10.02
O       2.47       5.50      10.21
O      -0.99       3.86       9.73
O       4.80       5.60      11.70
O       4.80       6.40       9.02
C       2.51       3.64       7.69
C       2.52       2.52      11.27
C      -0.97       5.78      12.23
C      -0.97       6.83       8.68
O       3.64       3.11      10.99
O       1.35       3.76       8.24
O       0.15       6.25       8.96
O       1.35       2.95      10.93
O       0.15       5.44      11.67
O       3.64       3.92       8.28
