46

Gd      19.52      17.17       5.58
Gd      15.65      17.61       5.49
O      25.17      16.88       5.74
C      20.53      14.52       5.75
C      14.35      21.60       6.24
O      23.06      16.63       6.43
O      23.86      14.17       5.07
O      25.92      14.09       4.20
O      20.95      15.27       4.76
O      19.89      15.09       6.69
Gd      23.04      16.16       4.01
C      22.32      18.94       4.41
C      14.75      20.16       6.08
O      15.47      19.54       6.94
O      14.38      19.55       5.01
Gd      26.92      16.07       4.47
C      13.39      15.92       8.58
C      13.13      15.89       7.12
C      21.75      15.39       0.02
O      16.11      17.49       3.08
O      13.98      17.14       3.60
C      17.85      21.16       5.28
C      22.14      15.54       1.46
C      18.37      19.79       5.47
C      16.88      14.94       4.81
C      14.94      17.22       2.72
O      17.73      18.74       5.01
O      19.47      19.60       6.07
C      17.56      16.74       8.08
O      17.75      15.90       4.77
O      15.66      15.19       5.01
O      18.51      17.44       7.56
O      16.46      16.53       7.47
C      25.25      16.35       0.48
C      25.77      16.18       1.86
O      23.49      18.57       4.15
O      21.36      18.06       4.47
O      13.53      16.89       6.38
O      27.32      14.94       6.55
O      22.82      14.66       2.10
O      21.79      16.63       2.06
C      24.28      16.84       6.69
C      24.96      13.57       4.88
C      20.79      13.06       5.73
O      25.12      16.64       2.90
O      26.88      15.59       2.05
