46

Gd      19.53       4.48      16.08
Gd      15.65       4.03      16.17
Gd      26.93       5.59      17.18
Gd      23.06       5.48      17.63
O      16.10       4.15      18.58
O      13.97       4.51      18.06
O      20.94       6.38      16.90
O      19.92       6.55      14.95
O      15.42       2.11      14.67
O      14.39       2.08      16.63
C      14.92       4.42      18.95
C      20.80       8.59      15.93
C      20.54       7.13      15.90
C      14.35       0.03      15.41
C      22.34       2.71      17.23
C      25.25       5.30      21.17
C      14.74       1.47      15.55
C      25.78       5.48      19.79
C      17.86       0.48      16.37
C      24.28       4.81      14.96
O      17.72       2.91      16.64
O      19.48       2.05      15.60
C      18.38       1.87      16.18
O      17.77       5.74      16.88
O      15.66       6.44      16.63
O      18.52       4.21      14.10
O      16.46       5.08      14.18
C      24.97       8.08      16.77
O      13.55       4.76      15.28
C      16.88       6.70      16.84
O      27.30       6.69      15.10
O      22.88       6.95      19.56
O      21.78       5.02      19.57
C      17.56       4.89      13.58
C      13.38       5.73      13.07
O      23.51       3.06      17.51
O      21.39       3.60      17.16
O      25.13       5.01      18.75
O      26.88       6.07      19.61
C      13.13       5.75      14.53
C      21.76       6.24      21.62
O      25.16       4.78      15.91
O      23.06       5.02      15.21
O      25.93       7.57      17.45
O      23.87       7.47      16.58
C      22.15       6.09      20.18
