36

C      -0.15       1.14      32.10
C      -0.18       1.50      33.46
C      -1.40       1.84      34.07
C      -2.58       1.87      33.32
C      -2.53       1.62      31.94
C      -1.32       1.28      31.33
C      -3.76       1.69      31.11
C      -4.52       0.54      30.88
C      -5.66       0.60      30.07
C      -6.03       1.82      29.48
C      -5.28       2.97      29.72
C      -4.14       2.91      30.54
C       1.07       1.61      34.25
C       1.55       0.50      34.96
C       2.70       0.62      35.75
C       3.33       1.86      35.88
C       2.82       2.98      35.22
C       1.71       2.85      34.38
H      -1.42       2.12      35.12
H      -1.30       1.04      30.27
H       3.09      -0.24      36.28
O      -3.91       3.72      34.03
H       4.20       1.96      36.51
O      -4.77       1.62      34.31
H       1.03      -0.45      34.91
H      -4.24      -0.41      31.33
H      -6.25      -0.28      29.89
H      -3.56       3.81      30.72
H      -5.58       3.91      29.28
H      -6.89       1.86      28.83
H       1.33       3.72      33.86
H       3.30       3.94      35.33
O       1.23      -0.80      32.26
O       1.32       0.42      30.32
C      -3.79       2.42      33.93
C       0.93       0.29      31.58
