20

O       4.54      14.45       3.47
O       2.31      14.90       3.44
H       2.27      18.17       0.32
H       1.95      17.86       3.12
H       3.93      15.87       0.27
H       6.21      17.53       0.69
H       5.88      17.22       3.50
H       4.22      19.51       3.54
C       3.09      17.95       1.04
C       2.91      17.79       2.57
C       4.00      16.70       1.01
C       3.83      16.56       2.53
C       4.33      18.83       1.28
C       5.25      17.60       1.24
C       5.07      17.44       2.78
O       5.12      20.18      -0.58
O       3.79      21.15       1.04
C       4.15      18.69       2.81
C       3.55      15.26       3.21
C       4.49      20.13       0.59
