48

C      12.59       1.93      17.46
C      12.99       1.05      18.49
C      13.04       1.49      19.81
C      12.71       2.82      20.13
C      12.30       3.69      19.11
C      12.24       3.25      17.79
C       7.77       3.68      10.10
C      18.39      -2.76      12.74
C      12.80       3.31      21.54
C      15.15      -1.76      14.43
C      16.27      -2.51      14.06
H      12.84       0.50      12.29
H      14.38       0.28      16.29
H      10.86       2.62      15.47
H      12.10       2.39      11.20
H      10.37       3.28       9.62
H       7.35       2.75      12.62
H       9.07       1.86      14.20
H      14.49      -2.11      15.23
H      16.51      -3.44      14.55
H      17.50      -0.49      11.61
H      15.46       0.84      12.25
H      13.24       0.02      18.25
H      13.33       0.82      20.62
H      12.06       4.72      19.36
H      11.95       3.95      17.00
C      11.06       2.45      11.51
O      13.42       2.54      22.36
C      17.12      -2.03      13.05
O      12.25       4.43      21.80
C      11.72       1.61      13.77
C      12.78       0.79      13.33
C      13.73       0.29      14.24
C      13.62       0.63      15.60
O       6.52       3.70      10.51
O       8.11       4.20       9.02
O      18.66      -3.77      13.47
O      19.12      -2.31      11.79
C      10.11       2.95      10.63
C       8.77       3.07      11.03
C       8.39       2.67      12.32
C       9.35       2.19      13.20
C      14.86      -0.55      13.79
C      12.60       1.49      16.05
C      11.65       1.96      15.13
C      10.71       2.08      12.82
C      16.81      -0.84      12.38
C      15.68      -0.11      12.74
