48

H      26.74       3.23      19.88
H      24.29       2.25      16.47
H      25.22      -0.75      19.39
H      27.22      -1.16      20.32
C      26.01       1.22      19.81
H      27.67       2.07      24.08
H      26.40       2.71      22.05
H      28.50      -1.78      22.38
C      26.13       2.53      19.33
C      25.56       2.92      18.10
C      24.81       1.96      17.39
C      24.68       0.64      17.83
C      25.29       0.28      19.05
C      26.71       0.82      21.04
C      27.29      -0.46      21.16
C      28.01      -0.81      22.29
C      28.15       0.10      23.35
C      27.55       1.37      23.26
C      26.85       1.72      22.12
C      25.89       4.23      17.52
C      26.40       5.29      18.30
H      26.41       5.21      19.38
C      26.90       6.45      17.71
C      26.33       5.56      15.52
C      25.84       4.41      16.12
C      22.68      -2.28      15.42
C      23.98      -0.37      17.02
C      23.17      -1.36      17.60
H      25.45       3.62      15.48
C      24.14      -0.36      15.62
C      29.04      -0.25      24.50
C      27.44       7.78      15.62
H      23.02      -1.36      18.68
C      22.52      -2.30      16.81
C      23.51      -1.31      14.82
H      21.86      -3.05      17.25
C      21.95      -3.27      14.58
H      23.65      -1.31      13.74
H      27.31       7.26      18.32
H      24.80       0.37      15.15
H      26.31       5.69      14.44
O      29.46      -1.43      24.63
O      29.41       0.70      25.31
C      26.88       6.58      16.31
O      28.15       8.63      16.27
O      27.21       7.92      14.38
O      21.27      -4.18      15.13
O      22.03      -3.18      13.28
