48

C       8.05      13.93       3.54
C       7.94      12.62       4.01
C       8.50      12.23       5.24
C       9.26      13.18       5.96
C       9.38      14.51       5.51
C       8.77      14.87       4.30
C       7.36      14.33       2.30
C       6.78      15.61       2.19
C       6.06      15.96       1.05
C       5.91      15.05      -0.00
C       6.51      13.78       0.09
C       7.22      13.42       1.23
C       8.17      10.92       5.83
C       7.67       9.86       5.05
C       7.17       8.70       5.64
C       7.18       8.57       7.04
C       7.74       9.59       7.83
C       8.23      10.74       7.23
C      10.08      15.52       6.33
C      10.90      16.51       5.74
C      11.55      17.45       6.53
C      11.39      17.42       7.93
C      10.56      16.46       8.52
C       9.92      15.51       7.73
C       5.03      15.39      -1.15
C       6.62       7.37       7.73
C      12.12      18.42       8.76
H       7.32      11.91       3.46
H       9.78      12.90       6.87
H       8.84      15.90       3.96
H       6.84      16.30       3.02
H       5.57      16.93       0.97
H       6.40      13.07      -0.73
H       7.67      12.44       1.30
H       7.65       9.94       3.96
H       6.76       7.89       5.03
H       7.75       9.46       8.91
H       8.62      11.53       7.86
H      11.04      16.51       4.66
H      12.20      18.20       6.09
H      10.42      16.46       9.60
H       9.27      14.78       8.20
O       4.60      16.58      -1.29
O       4.66      14.45      -1.96
O       5.92       6.52       7.07
O       6.86       7.23       8.97
O      12.80      19.33       8.21
O      12.04      18.33      10.06
