48

H      12.71      11.19       0.61
H      11.17      10.98       4.61
H      14.70      13.30       3.80
H      13.44      13.07      -0.48
H      15.17      13.94      -2.07
H      18.20      13.43       0.93
H      16.49      12.56       2.51
H      11.06       8.58       3.55
H       9.04       7.25       2.90
H       8.04      10.19      -0.05
H      10.08      11.52       0.57
H      12.30      10.72       6.58
H      12.21      11.52       8.94
H      13.48      15.42       7.68
H      13.61      14.64       5.33
C      13.83      12.30       2.09
C      12.77      11.48       1.66
C      11.82      10.98       2.56
C      11.93      11.32       3.92
C      12.95      12.18       4.38
C      13.90      12.65       3.45
C      14.85      12.77       1.14
C      14.49      13.13      -0.18
C      15.44      13.62      -1.06
C      16.78      13.75      -0.66
C      17.16      13.35       0.63
C      16.20      12.87       1.52
C      10.69      10.14       2.11
C      10.40       8.93       2.76
C       9.28       8.19       2.40
C       8.42       8.66       1.40
C       8.72       9.85       0.72
C       9.86      10.58       1.07
C      12.96      12.62       5.78
C      12.56      11.75       6.82
C      12.50      12.19       8.13
C      12.83      13.52       8.45
C      13.24      14.39       7.43
C      13.32      13.95       6.11
C      17.77      14.35      -1.60
C       7.15       7.93       1.09
C      12.73      14.01       9.87
O      19.02      14.37      -1.22
O      17.41      14.89      -2.67
O       6.87       6.94       1.85
O       6.44       8.35       0.12
O      12.10      13.25      10.68
O      13.28      15.13      10.12
