48

C      22.34      13.54       9.57
C      21.28      14.36      10.01
C      20.34      14.86       9.10
C      20.45      14.52       7.75
C      21.46      13.66       7.29
C      22.41      13.19       8.21
C      23.36      13.07      10.53
C      23.00      12.69      11.84
H      21.22      14.65      11.06
H      19.68      14.87       7.06
H      23.21      12.53       7.87
C      24.71      12.96      10.14
C      19.21      15.70       9.56
C      18.92      16.91       8.91
H      21.96      12.76      12.15
C      23.96      12.20      12.72
H      25.00      13.29       9.15
C      18.38      15.26      10.61
C      21.47      13.22       5.89
C      21.07      14.09       4.85
H      23.69      11.87      13.72
H      26.72      12.40      10.72
H      19.57      17.26       8.12
C      21.83      11.90       5.56
C      26.30      11.47      13.24
H      18.60      14.31      11.10
C      15.67      17.90      10.61
H      20.82      15.12       5.09
C      21.03      13.66       3.54
H      22.12      11.20       6.34
C      21.76      11.46       4.24
C      21.27      11.84       1.80
C      25.30      12.07      12.32
C      25.67      12.47      11.02
C      17.80      17.65       9.29
O      27.54      11.45      12.84
O      25.95      10.95      14.33
H      17.56      18.59       8.79
C      16.95      17.18      10.29
O      15.40      18.92       9.88
C      17.25      15.99      10.96
O      14.95      17.46      11.55
H      16.57      15.64      11.74
O      20.65      12.61       0.99
O      21.82      10.72       1.55
H      20.74      14.33       2.73
H      22.00      10.43       3.99
C      21.36      12.33       3.22
