23

Zn      15.03      19.01      28.27
C      13.18      17.70      30.14
Zn      17.47      17.03      28.22
O      17.90      20.02      31.51
O      16.63      18.51      32.56
C      19.97      17.58      29.19
Zn      16.01      17.64      30.95
Zn      17.89      19.84      29.51
C      15.37      21.66      28.83
C      16.76      14.95      30.25
C      17.43      19.45      32.55
O      17.06      15.26      29.04
O      16.43      15.73      31.15
O      15.00      18.28      26.44
O      16.70      16.85      26.46
C      15.69      17.37      25.93
O      14.61      20.90      28.17
O      14.07      17.60      31.01
O      13.37      18.24      29.02
O      19.58      18.65      29.73
O      19.40      16.96      28.29
O      16.55      18.38      29.27
O      16.31      21.27      29.47
