23

O      13.92      18.13      13.08
O      14.10      19.82      11.64
O      16.94      18.40      12.62
O      17.19      15.51      12.83
C      20.32      19.08      13.49
O      18.50      18.50       9.80
O      16.80      19.93       9.81
Zn      18.47      17.77      11.63
Zn      16.02      19.75      11.58
C      13.52      19.19      12.55
O      16.43      21.52      12.40
O      17.07      21.05      14.50
C      18.12      15.12      12.18
Zn      17.48      19.13      14.30
Zn      15.61      16.94      12.86
C      16.07      17.32      15.90
O      15.60      16.76      14.87
O      16.86      18.27      15.91
C      17.80      19.41       9.28
C      16.74      21.83      13.61
O      18.88      15.88      11.53
O      19.42      19.18      14.36
O      20.13      18.54      12.37
