23

Zn       9.11       5.38      14.30
Zn       7.23       7.58      12.86
O      10.51       8.64      11.53
Zn      10.09       6.75      11.63
O      11.05       5.34      14.36
O      11.76       5.98      12.37
Zn       7.65       4.77      11.58
C       8.36       2.69      13.61
O       5.55       6.39      13.08
O       5.72       4.70      11.64
O       8.57       6.12      12.62
C       7.70       7.20      15.90
O       8.81       9.01      12.83
C      11.95       5.44      13.49
O       7.22       7.76      14.87
O       8.49       6.25      15.91
C       9.43       5.11       9.28
C       5.15       5.33      12.55
C       9.75       9.40      12.18
O      10.12       6.02       9.80
O       8.42       4.59       9.81
O       8.06       3.00      12.40
O       8.69       3.47      14.50
