23

Zn       7.64       6.88      30.95
C       4.80       6.82      30.14
Zn       9.52       4.68      29.51
C       8.39       9.57      30.25
C      11.60       6.93      29.19
Zn       6.66       5.51      28.27
Zn       9.10       7.49      28.22
C       7.00       2.86      28.83
O       6.24       3.62      28.17
O       5.70       6.92      31.01
O       4.99       6.28      29.02
O      11.20       5.87      29.73
O      11.02       7.56      28.29
O       8.18       6.14      29.27
O       7.94       3.25      29.47
C       7.32       7.15      25.93
C       9.05       5.06      32.55
O       8.69       9.26      29.04
O       8.06       8.79      31.15
O       6.63       6.24      26.44
O       8.33       7.67      26.46
O       9.52       4.50      31.51
O       8.26       6.01      32.56
