21

N       5.93      16.89       8.46
N       7.69      15.55       8.33
O      10.36       9.87       9.61
O      12.16      10.99       8.85
H       6.69      18.45       7.18
H       8.91      16.77       7.02
H       5.94      15.02       9.50
H      10.36      15.48       8.34
H      11.75      13.45       8.69
H       8.22      11.06       9.13
H       6.80      13.04       8.72
C       6.87      17.49       7.65
C       7.98      16.68       7.56
C       6.44      15.73       8.86
C       8.50      14.39       8.52
C       9.89      14.51       8.49
C      10.67      13.37       8.68
C      10.07      12.13       8.92
C       8.67      12.03       8.96
C       7.88      13.15       8.74
C      10.93      10.92       9.14
