21

N      12.49       0.73      16.78
N      12.53       1.93      14.92
H      13.63      -0.94      16.04
H      13.68       0.55      13.69
H      11.49       2.63      16.69
O      11.82       6.13      10.08
H      11.96       6.41      14.02
H      12.19       3.71      10.70
H      12.38       1.78      12.26
O      11.96       7.53      11.84
H      12.28       4.51      15.60
C      13.20       0.04      15.82
C      13.24       0.76      14.66
C      12.09       1.87      16.21
C      12.33       3.03      14.02
C      12.20       4.33      14.53
C      12.03       5.39      13.65
C      12.01       5.18      12.27
C      12.16       3.87      11.77
C      12.30       2.79      12.64
C      11.91       6.35      11.34
