21

C       8.95       4.12       9.87
C       5.90       6.35       9.47
H      10.14      -1.18      11.42
H       7.92       0.50      11.59
H      10.89       2.26       9.11
H       6.47       1.79      10.26
H       5.07       3.82       9.92
H       8.61       6.22       9.47
H      10.03       4.23       9.89
N      10.90       0.38      10.14
N       9.14       1.72      10.28
O       6.47       7.40       9.00
O       4.66       6.28       9.75
C       9.96      -0.22      10.96
C       8.85       0.59      11.04
C      10.39       1.54       9.75
C       8.33       2.88      10.09
C       6.94       2.76      10.12
C       6.16       3.90       9.93
C       6.76       5.14       9.68
C       8.15       5.24       9.65
