21

C       1.54      17.06      16.95
C       0.44      17.87      16.87
N       2.49      17.66      17.77
N       0.73      19.00      17.64
H       1.73      16.10      16.49
H      -0.49      17.78      16.32
C       1.97      18.82      18.16
H       2.47      19.54      18.80
C      -0.08      20.16      17.82
C      -1.48      20.04      17.79
C       0.53      21.40      18.04
H      -1.94      19.07      17.65
C      -2.26      21.18      17.98
H       1.62      21.51      18.02
C      -0.26      22.52      18.26
H      -3.34      21.10      17.99
C      -2.51      23.63      18.44
H       0.19      23.50      18.44
O      -1.94      24.69      18.88
O      -3.76      23.56      18.19
C      -1.66      22.42      18.22
