21

C       3.63       8.68      12.09
C       3.59       9.41      13.25
C       4.74      10.51      11.70
C       4.49      11.67      13.89
C       4.62      12.97      13.38
C       4.79      14.04      14.26
C       4.82      13.82      15.65
C       4.67      12.52      16.14
N       4.34       9.38      11.13
N       4.30      10.58      12.99
H       4.55      13.16      12.31
H       4.87      15.06      13.89
H       4.64      12.35      17.21
H       4.45      10.43      15.65
H       5.34      11.28      11.22
H       3.15       9.19      14.22
H       3.20       7.71      11.87
C       4.53      11.44      15.27
C       4.92      14.98      16.59
O       5.01      14.76      17.84
O       4.87      16.17      16.10
