22

C       1.60       9.52       5.60
C       0.21       9.89       1.84
C       0.93       9.46       0.59
C      -0.19      12.79       6.14
C      -3.57      11.09       6.65
C      -2.19      10.73      10.40
C      -2.90      11.16      11.66
C      -1.79       7.83       6.10
O       1.23       9.25       6.78
O       1.08      10.35       4.85
O      -0.23       9.03       2.62
O       0.05      11.14       2.07
O      -0.66      11.76       6.68
O      -0.19      12.94       4.89
O      -3.20      11.37       5.46
O      -3.05      10.26       7.40
O      -1.74      11.59       9.63
O      -2.03       9.48      10.18
O      -1.31       8.86       5.57
O      -1.78       7.68       7.36
Sm      -1.20      10.78       4.17
Sm      -0.77       9.84       8.08
