23

O       2.39       7.20       9.07
O       3.92       8.69       9.88
Zn       3.75       8.57      11.83
Zn       1.19       7.09      10.63
Zn       2.61       5.87      13.28
Zn       1.04       8.64      13.44
O       0.61       7.77      15.15
O       1.82       5.83      15.08
O       0.88       5.14      10.72
O       2.30       4.21      12.25
O       2.16       7.52      12.30
O      -0.68       9.07      12.55
O      -0.54       8.00      10.53
C       3.51       7.84       9.00
C       1.04       6.67      15.67
C       1.62       4.18      11.15
C      -1.13       8.76      11.39
C       5.49       6.51      12.96
O       5.41       7.65      12.37
O       4.54       5.96      13.62
O       1.90      10.35      13.96
O       3.72      10.38      12.58
C       2.95      10.91      13.47
