192

C      25.22       5.95      10.39
C       0.82       6.93      10.57
C       0.84       8.13       9.81
C      25.21       8.32       8.86
C      24.20       7.36       8.65
C      24.19       6.19       9.44
C      25.26       4.75      11.16
C       0.89       3.79      11.00
C       0.91       2.59      11.77
C      25.29       2.39      12.72
C      24.26       3.33      12.92
C      24.24       4.50      12.12
C       8.28      17.93      10.53
C       9.29      17.59       9.59
C       9.31      16.33       8.93
C       8.27      15.42       9.24
C       7.26      15.71      10.18
C       7.25      16.99      10.80
C       8.32      19.20      11.18
C       9.36      -6.89      12.09
C       9.38      -5.62      12.75
C       8.35      -4.70      12.45
C       7.32      -4.99      11.53
C       7.30      -6.27      10.92
C      16.75      12.06       0.09
C      17.76      11.41       0.85
C      17.78      11.47       2.27
C      16.74      12.20       2.90
C      15.73      12.86       2.18
C      15.72      12.76       0.77
C      16.79      -1.22      21.54
C      17.83      -0.60      20.79
C      17.85      -0.66      19.37
C      16.82      -1.39      18.72
C      15.79      -2.04      19.44
C      15.77      -1.92      20.84
C      23.20       7.65       7.67
C      23.56       7.81       6.32
C      22.65       8.33       5.38
C      21.35       8.73       5.78
C      20.97       8.55       7.14
C      21.89       8.00       8.07
C      20.52       9.42       4.85
C      20.02       8.79       3.69
C      19.16       9.47       2.81
C      18.77      10.82       3.06
C      19.34      11.46       4.19
C      20.19      10.78       5.07
C       6.26      14.72      10.42
C       6.62      13.47      10.96
C       5.71      12.40      10.97
C       4.41      12.54      10.42
C       4.03      13.81       9.90
C       4.95      14.89       9.91
C       3.59      11.39      10.29
C       3.08      10.70      11.42
C       2.22       9.60      11.27
C       1.84       9.14       9.98
C       2.40       9.80       8.86
C       3.25      10.91       9.01
C      14.73      13.56       2.92
C      15.09      14.66       3.74
C      14.18      15.20       4.65
C      12.88      14.65       4.80
C      12.50      13.57       3.96
C      13.42      13.04       3.03
C      12.05      15.12       5.86
C      11.55      16.44       5.90
C      10.68      16.86       6.93
C      10.30      15.97       7.97
C      10.86      14.67       7.96
C      11.72      14.25       6.93
C      23.26       3.06      13.90
C      23.63       2.89      15.25
C      22.70       2.40      16.19
C      21.40       2.02      15.79
C      21.01       2.20      14.44
C      21.95       2.73      13.51
C      20.56       1.36      16.73
C      19.99       2.04      17.83
C      19.13       1.37      18.72
C      18.83      -0.01      18.56
C      19.45      -0.69      17.49
C      20.30      -0.02      16.58
C       6.33      -4.01      11.28
C       6.69      -2.76      10.74
C       5.77      -1.69      10.70
C       4.46      -1.85      11.23
C       4.08      -3.11      11.75
C       5.01      -4.18      11.76
C       3.63      -0.70      11.34
C       3.06      -0.09      10.20
C       2.19       1.01      10.33
C       1.90       1.56      11.60
C       2.52       0.97      12.73
C       3.36      -0.14      12.60
C      14.79      -2.75      18.71
C      15.16      -3.84      17.89
C      14.23      -4.40      16.99
C      12.93      -3.87      16.87
C      12.55      -2.78      17.70
C      13.48      -2.25      18.62
C      12.10      -4.35      15.82
C      11.53      -5.64      15.86
C      10.66      -6.08      14.83
C      10.37      -5.25      13.72
C      10.99      -3.98      13.67
C      11.83      -3.53      14.70
H       1.56       6.77      11.25
H      25.18       9.19       8.33
H      25.27       1.52      13.26
H      23.50       5.19      12.26
H      22.47       5.46       9.78
H       2.67       4.31      10.58
H      10.03      18.26       9.39
H       8.24      14.52       8.75
H       8.33      -3.80      12.93
H       6.56      19.93      10.25
H       5.54      17.64      11.26
H      11.13      18.91      11.86
H      18.50      10.90       0.37
H      16.71      12.22       3.93
H      16.80      -1.42      17.70
H      15.03      -2.39      21.37
H      14.01      -0.38      22.84
H      19.60      -0.49      21.45
H      21.63       7.93       9.05
H      20.24       7.81       3.51
H      18.75       8.96       2.02
H      19.11      12.44       4.40
H      24.52       7.60       6.01
H      20.56      11.27       5.89
H      22.96       8.49       4.42
H       4.69      15.77       9.48
H       3.30      11.03      12.36
H       1.82       9.18      12.11
H       2.17       9.49       7.91
H       7.58      13.30      11.29
H       3.62      11.36       8.17
H       6.03      11.49      11.32
H      13.16      12.22       2.47
H      11.77      17.09       5.14
H      10.29      17.80       6.88
H      10.64      14.00       8.70
H      16.05      15.03       3.71
H      12.09      13.29       6.95
H      14.49      15.96       5.27
H      21.68       2.80      12.52
H      20.16       3.04      17.96
H      18.68       1.91      19.46
H      19.27      -1.69      17.33
H      24.58       3.09      15.56
H      20.71      -0.55      15.81
H      23.02       2.24      17.16
H       4.74      -5.07      12.19
H       3.22      -0.49       9.27
H       1.74       1.38       9.49
H       2.34       1.34      13.67
H       7.65      -2.59      10.42
H       3.78      -0.55      13.45
H       6.08      -0.78      10.36
H      13.21      -1.43      19.18
H      11.69      -6.25      16.66
H      10.21      -6.99      14.94
H      10.81      -3.35      12.88
H      16.11      -4.20      17.91
H      12.24      -2.60      14.63
H      14.55      -5.16      16.38
N      19.67       8.93       7.55
N       2.73      13.98       9.36
N      11.20      13.02       4.09
N      19.71       1.82      14.03
N       2.77      -3.28      12.28
N      11.24      -2.25      17.57
O      23.24       5.23       9.21
O       1.87       4.03      10.08
O       6.31      17.27      11.74
O      10.34      18.62      12.35
O      14.77      13.44       0.05
O      18.80       0.08      21.46
O      19.70       9.82       8.44
O      19.02       7.95       7.99
O       2.77      14.30       8.15
O       2.08      14.85       9.99
O      11.24      11.81       4.42
O      10.55      13.13       3.02
O      19.74       0.92      13.16
O      19.07       2.81      13.58
O       2.81      -3.58      13.50
O       2.13      -4.16      11.66
O      11.27      -1.04      17.23
O      10.60      -2.34      18.65
