15

Co       4.37       1.34       4.47
C       6.89       0.42       4.46
C       2.04       0.23       4.27
N       4.29       3.45       4.83
N       4.27       0.88       6.53
C       5.37       4.15       5.24
N       4.60       1.74       2.42
C       3.21       4.15       4.41
C       4.04       1.76       7.53
C       3.88       1.13       1.46
O       3.10      -0.47       4.19
O       2.12       1.51       4.33
O       5.80      -0.22       4.25
C       4.47      -0.41       6.88
C       5.51       2.66       2.03
