13

N       3.74       5.73      24.75
C       2.45       5.87      25.14
C       3.78       3.72      27.70
C       4.87       1.80      22.86
N       6.79       4.65      24.65
Zn       4.88       4.08      24.91
C       4.01       6.83      23.95
N       4.39       2.98      23.30
C       7.78       4.04      23.89
C       4.83       1.93      27.02
N       4.52       3.19      26.65
C       7.36       5.77      25.14
C       3.63       3.48      22.26
