13

C       0.03       1.80      10.41
N       1.17       5.73      12.30
C       1.12       3.72      15.26
C       1.27       3.48       9.82
N       0.51       2.98      10.86
C      -2.87       4.04      11.45
N      -1.89       4.65      12.21
Zn       0.02       4.08      12.47
C       0.89       6.83      11.51
C       0.08       1.93      14.58
C       2.45       5.87      12.69
C      -2.45       5.77      12.69
N       0.38       3.19      14.21
