13

C       4.93      21.49       2.03
N       6.07      17.56       0.14
C       6.02      19.57      -2.82
N       5.41      20.31       1.59
Zn       4.92      19.20      -0.03
N       3.01      18.64       0.24
C       5.80      16.45       0.93
C       2.03      19.25       0.99
C       7.35      17.42      -0.25
C       4.98      21.36      -2.13
C       2.45      17.51      -0.25
C       6.17      19.80       2.63
N       5.28      20.09      -1.77
