13

C       2.87      19.25      13.44
N      -1.17      17.56      12.58
C      -1.12      19.57       9.63
C      -2.45      17.42      12.19
C      -0.03      21.49      14.47
Zn      -0.02      19.20      12.42
N       1.89      18.64      12.68
C      -0.89      16.45      13.38
N      -0.51      20.31      14.03
C      -0.08      21.36      10.31
N      -0.38      20.09      10.68
C      -1.27      19.80      15.07
C       2.45      17.51      12.19
