13

Zn       0.17      11.62      20.43
N      -0.44      10.13      21.60
C      -0.03       9.85      22.86
C      -0.99      13.12      18.07
C      -1.22       9.05      21.22
C       2.78      10.13      20.04
N       0.58      13.25      21.54
N      -1.18      12.18      19.07
C       0.08      13.57      22.75
C       1.24      14.38      21.11
C      -2.42      11.68      18.87
C       2.48      11.60      18.46
N       1.87      11.04      19.53
