13

Zn       5.08       0.02      20.43
N       4.46       1.52      21.60
C       4.87       1.80      22.86
C       3.91      -1.47      18.07
C       3.68       2.59      21.22
C       7.68       1.51      20.04
N       3.72      -0.54      19.07
N       5.48      -1.61      21.54
C       2.48      -0.04      18.87
C       4.98      -1.93      22.75
C       6.15      -2.74      21.11
C       7.38       0.04      18.46
N       6.78       0.60      19.53
