13

Zn       4.73      23.27       4.45
N       5.34      21.77       3.29
C       4.93      21.49       2.03
C       5.89      24.76       6.82
C       6.13      20.70       3.67
C       2.12      21.77       4.85
N       6.08      23.82       5.82
N       4.32      24.89       3.34
C       7.32      23.33       6.02
C       4.83      25.21       2.13
C       3.66      26.03       3.78
C       2.42      23.24       6.43
N       3.03      22.69       5.36
