13

Zn       5.08      11.66      16.90
N       4.46      13.16      15.73
C       4.87      13.44      14.47
C       3.91      10.17      19.26
C       3.68      14.23      16.11
C       7.68      13.15      17.29
C       7.38      11.68      18.87
N       3.72      11.11      18.26
N       5.48      10.03      15.79
C       2.48      11.60      18.46
C       4.98       9.71      14.58
C       6.15       8.90      16.22
N       6.78      12.24      17.80
