13

N       0.44       1.52       9.16
Zn      -0.17       0.02       7.99
C       0.03       1.80      10.41
C       0.99      -1.47       5.63
C       1.22       2.59       8.77
C      -2.78       1.51       7.60
C      -2.48       0.04       6.02
N      -0.58      -1.61       9.10
N       1.18      -0.54       6.63
C      -0.08      -1.93      10.31
C      -1.24      -2.74       8.66
C       2.42      -0.04       6.43
N      -1.87       0.60       7.09
