50

Mn       5.09       1.79       2.25
Mn       3.41      -0.53       0.27
O       1.96      -0.05      -1.16
O       4.92       0.95       0.35
O       3.36       1.56      -1.93
Mn       8.52      -1.79      -2.25
Mn      10.20       0.53      -0.27
Mn       6.80       0.00       0.00
O       2.55      -2.03       1.31
Mn       0.00       0.00       0.00
H       4.61       1.47      -0.43
O       5.30       0.02       3.23
O       6.63      -1.15       1.81
O       8.68      -0.95      -0.35
O       0.31      -1.89       1.02
O      11.64       0.05       1.16
O      10.24      -1.56       1.93
H       1.57       1.11      -2.78
O      11.06       2.03      -1.31
O      -0.31       1.89      -1.02
O       6.97       1.15      -1.81
O       8.30      -0.02      -3.23
H       9.00      -1.47       0.43
H      12.04      -1.11       2.78
C       8.05       3.43       2.34
C       9.21       3.11       1.57
C       1.94       2.54       3.13
C       0.74       1.99       2.60
C       2.31       0.91      -1.99
C       6.05      -0.98       2.92
C       1.34      -2.38       1.58
C       5.55      -3.43      -2.34
C       4.40      -3.11      -1.57
C      11.66      -2.54      -3.13
C      -0.74      -1.99      -2.60
C      11.30      -0.91       1.99
C       7.56       0.98      -2.92
C      12.26       2.38      -1.58
N       8.93       1.96       0.88
N       7.68       1.62       1.18
N       7.10       2.48       2.04
N       2.98       1.94       2.45
N       2.42       1.07       1.58
N       1.10       1.09       1.64
N       4.67      -1.96      -0.88
N       5.92      -1.62      -1.18
N       6.50      -2.48      -2.04
N      10.62      -1.94      -2.45
N      11.18      -1.07      -1.58
N      -1.10      -1.09      -1.64
