13

O       0.43       3.78       1.00
Er      -1.05       2.05       0.23
O      -2.53       0.31       1.00
O      -2.95       3.08      -0.46
C      -0.04       4.93       0.79
O       0.05       1.28       2.23
O       0.85       1.02      -0.46
C      -2.06      -0.83       0.79
O      -2.14       2.81       2.23
C      -4.15       3.26      -0.79
C       2.06       0.83      -0.79
C      -0.39       1.64       3.34
C      -1.71       2.45       3.34
