40

O       1.21       8.33      34.11
O      -0.14       9.62      35.32
O       2.58      10.20      41.36
O       2.23       6.57      47.13
O       2.67       4.75      45.92
O       4.53       6.82      39.88
C       1.80       7.69      38.81
C       2.22       9.67      40.17
C       1.71       6.27      38.67
C       1.09       7.89      36.46
C       1.46       8.52      37.69
C       2.20       8.28      40.05
C       1.54       9.93      37.85
C       1.89      10.49      39.06
C       0.71       8.66      35.24
C       1.07       6.50      36.36
C       1.35       5.70      37.48
C       1.97       7.40      42.42
C       3.89       6.77      41.06
C       0.70       8.03      42.56
C       1.78       6.69      44.78
C       2.52       6.69      43.55
C       2.68       7.45      41.19
C       3.77       6.05      43.39
C       4.44       6.08      42.18
C       2.26       5.97      45.99
C       0.58       7.36      44.88
C       0.02       8.01      43.76
H       2.43      11.20      41.38
H       1.94       5.66      39.54
H       1.29      10.57      37.01
H       1.95      11.57      39.16
H       0.81       6.06      35.40
H       1.28       4.62      37.39
H       5.32       6.19      39.86
H       0.27       8.53      41.70
H       4.21       5.52      44.23
H       5.40       5.59      42.07
H       0.06       7.36      45.84
H      -0.95       8.49      43.84
