26

H       6.79       2.76      16.54
H       8.64      -0.27      19.93
H       8.86       2.21      20.09
H       6.51       0.32      16.22
H       7.43      -1.99      16.92
H       6.07      -1.72      17.97
C      10.95      -4.48      19.68
C       9.17      -3.07      18.86
C      10.00      -2.76      17.77
C      11.26      -3.34      17.68
C       9.69      -3.92      19.84
C       7.73      -2.63      18.98
C       7.19       2.06      17.26
C       7.52      -0.20      18.07
C       8.21       0.36      19.16
C       8.34       1.74      19.25
C       7.04       0.69      17.09
C       7.17      -1.66      17.94
H      11.36      -5.18      20.41
H       9.68      -2.07      16.99
N       7.82       2.58      18.34
N      11.73      -4.20      18.61
H       9.10      -4.19      20.72
H      11.93      -3.13      16.85
H       7.56      -2.25      20.00
H       7.12      -3.55      18.94
