18

C       7.16       4.18       2.29
C       7.40       5.09       4.64
C       7.67       4.09       0.99
C       9.00       5.68       2.88
C       7.85       4.96       3.24
H       6.26       3.64       2.57
H       9.52       6.28       3.62
C       7.12       3.17      -0.05
O       7.99       5.91       5.44
O       6.41       4.42       5.15
H       9.16       4.75      -0.39
O       5.84       2.86       0.00
O      10.86       6.57      -0.12
O       7.87       2.70      -0.93
C       8.81       4.83       0.63
C      10.64       6.44       1.16
O      11.34       7.02       2.03
C       9.46       5.63       1.57
