18

O       4.25       7.98      11.04
O       5.82       9.48      11.32
C       5.08       9.72      14.18
O       6.40      11.04      16.47
O       4.37      11.19      17.40
C       4.84       8.81      11.84
C       4.57       9.80      15.49
C       3.24       8.22      13.59
C       4.39       8.93      13.23
C       5.12      10.72      16.53
O       0.90       6.87      14.45
H       5.98      10.25      13.91
H       2.72       7.61      12.86
C       3.43       9.07      15.84
O       1.38       7.33      16.60
H       3.08       9.14      16.87
C       1.60       7.46      15.32
C       2.78       8.27      14.91
