18

O       5.85       9.81       8.23
O       7.88       9.65       9.16
C      10.65      13.38       7.08
C       7.13      10.12       8.29
C       9.47      12.58       6.67
O       7.99      12.86       2.80
O       6.43      11.36       3.08
C       7.17      11.13       5.94
C       7.41      12.04       3.60
C       7.68      11.04       7.25
C       9.01      12.63       5.36
O      11.35      13.97       6.21
C       7.86      11.91       4.99
H       6.27      10.59       5.67
H       9.53      13.23       4.62
H       9.17      11.70       8.63
O      10.87      13.51       8.36
C       8.82      11.77       7.61
