40

H       3.61       8.97       2.16
H       1.93       7.18       2.16
H      -3.61       3.51       2.16
H      -1.93       5.29       2.16
H      -3.61       3.51      -2.16
H      -1.93       5.29      -2.16
H       3.61       8.97      -2.16
H       1.93       7.18      -2.16
C       5.36      10.58       1.18
C       3.25       8.58       1.21
C       2.30       7.57       1.21
C       0.91       5.08       1.19
C      -5.36       1.90       1.18
C      -3.25       3.90       1.21
C      -2.30       4.91       1.21
C      -0.91       7.40       1.19
C      -5.36       1.90      -1.18
C      -3.25       3.90      -1.21
C      -2.30       4.91      -1.21
C      -0.91       7.40      -1.19
C       5.36      10.58      -1.18
C       3.25       8.58      -1.21
C       2.30       7.57      -1.21
C       0.91       5.08      -1.19
C       4.82      10.10       0.00
C       3.76       9.09       0.00
C       1.83       7.04       0.00
C       0.78       5.93       0.00
C      -4.81       2.38       0.00
C      -3.76       3.39       0.00
C      -1.83       5.44       0.00
C      -0.78       6.54       0.00
N       5.83      10.95       2.20
N       1.04       4.43       2.15
N      -5.83       1.52       2.20
N      -1.04       8.05       2.15
N      -5.83       1.52      -2.20
N      -1.04       8.05      -2.15
N       5.83      10.95      -2.20
N       1.04       4.43      -2.15
