36

Eu       7.25      16.88      15.60
Eu       7.25      18.13      19.40
Eu       9.82      19.40      16.88
O       5.26      15.65      16.11
Eu       9.82      15.60      18.13
O       9.60      17.96      18.83
O       3.04      14.78      16.65
O       9.60      17.04      16.17
O       8.12      20.29      20.09
H       6.84      19.54      16.80
O       8.86      21.21      18.17
O       8.12      14.71      14.92
H       6.83      15.47      18.20
O       8.87      13.79      16.83
H      10.23      18.20      19.54
O       8.95      20.09      14.71
O       8.20      18.17      13.79
H      10.23      16.80      15.47
O       8.95      14.92      20.29
O       8.20      16.83      21.21
C       8.62      21.26      19.43
C       8.62      13.75      15.58
C       8.44      19.43      13.75
C       8.44      15.58      21.26
S       4.48      19.43      14.96
S      13.02      15.57      20.04
S      12.58      20.04      19.43
S       4.05      14.96      15.57
O       5.49      18.35      14.78
O      11.80      18.89      15.65
O       7.46      18.83      17.05
O       5.49      16.65      20.23
O      11.80      16.11      19.36
O       7.46      16.17      17.96
O      11.57      20.22      18.35
O       5.26      19.36      18.89
