14

Zn       2.85       5.58      15.31
Zn       4.86       8.15      17.14
O       1.06       5.65      14.35
O       5.10       8.71      15.27
C       2.50       9.06      18.55
O       4.07       4.31      14.39
C       4.15       8.24      14.55
O       4.47       6.25      17.45
O       3.64       9.42      18.07
O       2.61       5.02      17.19
O       6.64       8.08      18.11
O       3.24       7.48      15.01
C       3.56       5.49      17.91
C       0.37       4.67      13.91
