31

C      -1.48      12.54      14.06
C      -2.43      11.80      13.18
C      -3.20      10.78      13.76
C      -4.12      10.07      12.99
H      -4.37      14.37       5.38
H      -3.45      13.24       7.44
H      -7.29      11.42       8.11
H      -8.18      12.51       6.04
H      -3.06      10.54      14.81
H      -5.01       9.82      11.07
H      -2.00      12.92      11.38
C      -4.30      10.40      11.65
N      -3.79      11.96       9.77
C      -3.57      11.47      11.06
C      -2.59      12.13      11.83
C      -4.93       8.96      13.61
O      -7.98      13.75       3.89
O      -6.32      15.24       3.93
O      -1.69      12.51      15.31
O      -0.51      13.18      13.53
O      -5.69       8.33      12.80
O      -4.81       8.73      14.86
H      -5.69      11.09       9.66
C      -6.90      14.22       4.41
C      -6.33      13.51       5.60
C      -4.99      13.71       5.98
C      -4.48      13.09       7.12
C      -5.32      12.27       7.90
C      -6.65      12.05       7.50
C      -7.15      12.66       6.35
C      -4.92      11.70       9.18
