296

H      22.04       0.61       9.58
H      20.32       0.70       7.92
H      24.35      27.39       7.07
H      22.64      27.50       5.39
H      20.22      26.71       5.10
H      18.51      26.80       3.43
H      20.00       1.64       5.55
H      18.27       1.72       3.90
H      16.05      28.86       5.13
H      13.51      28.89       5.19
H      14.69      29.07       1.29
H      14.62      28.98      40.34
H      19.79      29.00       1.25
H      19.72      29.03      40.10
H      18.20      26.92      37.78
H      19.85      26.92      36.05
H      18.18       1.87      37.77
H      19.82       1.88      36.03
H      15.79      29.03      36.43
H      13.26      29.00      36.49
H       9.59      28.99       1.51
H       9.52      28.96      40.37
H      10.72       1.76      38.10
H       8.94       1.70      36.51
H      11.11      26.83      37.84
H       9.36      26.77      36.22
H       6.88      27.17      36.22
H       4.96      27.17      34.79
H       6.51       1.19      32.67
H       8.46       1.19      34.07
H      11.06      26.87       3.73
H       9.24      26.84       5.28
H       6.86       1.16       5.31
H       4.84       0.99       6.58
H       6.55      27.18       8.90
H       8.58      27.37       7.66
H       9.29       1.79       5.44
H      11.10       1.83       3.87
H      22.27       1.18      35.85
H      24.08       1.05      34.29
H      20.13      27.58      33.59
H      21.96      27.44      32.04
H      28.66      22.06      30.32
H      28.56      20.33      28.66
H       1.85      24.37      27.79
H       1.74      22.66      26.11
H       2.54      20.24      25.82
H       2.44      18.52      24.16
H      27.61      20.01      26.30
H      27.52      18.28      24.65
H       0.41      16.05      25.87
H       0.40      13.52      25.93
H       0.18      14.69      22.03
H       0.23      14.63      19.69
H       0.21      19.79      22.00
H       0.16      19.72      19.46
H       2.30      18.27      17.19
H       2.29      19.93      15.46
H      27.35      18.12      17.08
H      27.33      19.76      15.34
H       0.23      15.80      15.78
H       0.28      13.26      15.84
H       0.29       9.59      22.25
H       0.31       9.52      19.71
H      27.50      10.78      17.36
H      27.59       9.03      15.73
H       2.45      11.08      17.26
H       2.54       9.34      15.62
H       2.03       6.86      15.59
H       2.03       4.97      14.12
H      28.22       6.71      11.83
H      28.22       8.62      13.28
H       2.45      11.10      24.45
H       2.54       9.30      26.02
H      28.26       6.85      26.16
H      28.46       4.88      27.50
H       2.27       6.71      29.74
H       2.05       8.69      28.42
H      27.59       9.27      26.24
H      27.50      11.06      24.64
H      27.95      22.23      15.19
H      28.09      24.07      13.68
H       1.69      20.22      13.00
H       1.84      22.09      11.51
H      27.60       0.13       8.53
H       1.88       0.21       8.78
H       0.63       1.05      12.72
H      28.30      28.15      12.46
H      26.97       4.82       9.80
H       3.52      25.67      11.27
H       3.99      26.64       8.45
H       0.17       3.70      12.76
H      25.30       2.26       7.93
H       0.33      25.85      12.90
H       0.11      27.88      29.12
H      29.21       2.08      29.65
H      28.04       0.51      33.39
H       0.99      28.32      33.30
H      25.46      25.78      31.12
H       4.57       2.76      31.18
H       2.78       4.20      29.69
H      25.71      28.45      33.48
H      27.39      25.59      28.11
H       3.56      28.99      33.55
C      15.45      28.91       4.30
C      14.07      28.93       4.34
C      13.60      28.99       3.02
C      15.86      28.96       2.97
C      17.21      28.96       2.52
C      17.62      28.98       1.16
C      17.56      29.01      40.31
C      18.90      29.02      40.71
C      18.93      29.00       0.70
C      17.07      29.02      38.98
C      15.70      29.01      38.60
C      13.45      28.98      38.66
C      13.85      29.00      37.32
C      15.23      29.01      37.28
C      12.10      28.97      39.10
C      11.69      28.99      40.46
C      11.75      29.01       1.31
C      10.41      29.00       0.91
C      10.38      28.98      40.92
C      12.23      29.01       2.64
C      11.25      28.99       3.68
C      10.73       0.92       4.19
C       9.66       0.90       5.11
C       9.09      28.95       5.53
C       9.65      27.74       5.03
C      10.71      27.76       4.11
C       7.93      28.92       6.36
C       7.80      27.99       7.42
C       6.61      27.88       8.15
C       5.50      28.69       7.84
C       5.63       0.39       6.83
C       6.82       0.50       6.09
C      11.08      28.94      38.11
C      10.44       0.86      37.70
C       9.40       0.82      36.75
C       8.97      28.86      36.19
C       9.63      27.67      36.60
C      10.67      27.71      37.55
C       7.86      28.82      35.29
C       7.73       0.49      34.24
C       6.59       0.49      33.41
C       5.55      28.84      33.63
C       5.70      27.86      34.63
C       6.84      27.86      35.46
C      18.04      29.03      37.94
C      18.53      27.81      37.41
C      19.49      27.82      36.38
C      19.99      29.03      35.86
C      19.49       0.98      36.39
C      18.52       0.98      37.41
C      21.02      29.03      34.87
C      22.17       0.56      35.03
C      23.24       0.48      34.13
C      23.19      28.85      33.03
C      22.02      28.09      32.83
C      20.95      28.17      33.74
C      18.24      28.91       3.51
C      18.82      27.67       3.87
C      18.68       0.82       4.14
C      19.69       0.76       5.13
C      20.28      28.80       5.49
C      19.83      27.62       4.84
C      21.31      28.74       6.48
C      22.49      28.00       6.27
C      23.50      27.94       7.25
C      23.34      28.62       8.47
C      22.17       0.11       8.70
C      21.17       0.17       7.71
C       0.36      15.45      25.04
C       0.35      14.07      25.08
C       0.28      13.60      23.76
C       0.29      15.86      23.71
C       0.28      17.21      23.27
C       0.25      17.62      21.91
C       0.21      17.56      19.67
C       0.19      18.90      20.06
C       0.22      18.94      21.44
C       0.20      17.08      18.33
C       0.22      15.71      17.95
C       0.27      13.46      18.01
C       0.27      13.86      16.67
C       0.24      15.24      16.64
C       0.29      12.11      18.45
C       0.28      11.70      19.81
C       0.27      11.76      22.05
C       0.28      10.42      21.65
C       0.29      10.38      20.27
C       0.28      12.23      23.39
C       0.33      11.25      24.42
C      28.41      10.71      24.95
C      28.47       9.65      25.88
C       0.44       9.11      26.30
C       1.62       9.69      25.77
C       1.57      10.74      24.85
C       0.50       7.97      27.15
C       1.44       7.90      28.21
C       1.57       6.73      28.99
C       0.76       5.60      28.73
C      29.06       5.69      27.71
C      28.94       6.85      26.93
C       0.34      11.09      17.46
C      28.41      10.49      16.99
C      28.46       9.47      16.03
C       0.44       9.02      15.51
C       1.62       9.63      15.98
C       1.57      10.66      16.94
C       0.49       7.93      14.59
C      28.87       7.86      13.48
C      28.87       6.74      12.62
C       0.47       5.65      12.87
C       1.39       5.74      13.94
C       1.39       6.86      14.79
C       0.19      18.05      17.29
C       1.40      18.57      16.79
C       1.39      19.54      15.77
C       0.17      20.00      15.22
C      28.23      19.46      15.72
C      28.24      18.49      16.74
C       0.17      21.04      14.25
C      28.59      22.17      14.40
C      28.68      23.26      13.52
C       0.36      23.26      12.46
C       1.15      22.11      12.27
C       1.07      21.02      13.15
C       0.34      18.24      24.25
C       1.57      18.83      24.61
C      28.43      18.68      24.89
C      28.48      19.69      25.87
C       0.45      20.29      26.23
C       1.62      19.84      25.58
C       0.50      21.32      27.22
C       1.25      22.51      27.00
C       1.31      23.52      27.98
C       0.63      23.36      29.20
C      29.15      22.19      29.43
C      29.09      21.18      28.45
C      28.92       0.68      10.08
C      27.83       0.86       9.21
C      27.04       2.03       9.30
C      27.34       3.02      10.26
C      28.44       2.85      11.15
C      29.22       1.66      11.06
C       0.39      28.73      10.06
C       0.02      27.67      10.91
C       0.86      26.53      11.04
C       2.09      26.50      10.34
C       2.47      27.56       9.48
C       1.61      28.68       9.36
C       3.69      27.52       8.82
C      28.65       3.77      12.15
C      26.02       2.17       8.49
C       0.54      25.56      11.97
C      28.65      29.02      30.74
C      28.58      28.02      29.76
C      27.44      27.19      29.66
C      26.37      27.35      30.58
C      26.43      28.36      31.56
C      27.58      29.19      31.65
C       0.57       0.51      30.90
C       1.56       0.09      31.82
C       2.68       0.92      32.09
C       2.78       2.18      31.45
C       1.78       2.63      30.55
C       0.68       1.77      30.28
C       1.88       3.89      29.96
C      25.44      28.49      32.52
C      27.41      26.25      28.75
C       3.60       0.59      33.07
N      14.71      29.01       2.24
N      16.83      28.99       0.06
N      14.60      28.99      39.38
N      12.48      29.00       0.17
N       4.33      28.59       8.46
N      24.24      28.57       9.35
N      24.21      28.69      32.20
N       4.38      28.83      32.83
N       0.25      14.71      22.99
N       0.24      16.83      20.81
N       0.24      14.60      18.73
N       0.26      12.48      20.91
N       0.86       4.46      29.40
N       0.69      24.26      30.07
N       0.58      24.31      11.68
N       0.47       4.50      12.06
O      26.55       4.14      10.37
O       2.94      25.43      10.51
O       1.00       1.46      11.91
O      28.10      27.73      11.60
O      25.29      26.52      30.50
O       3.82       3.01      31.77
O      27.65       0.92      32.59
O       1.42      28.15      32.43
