24

Tb       4.93       5.58       6.21
Tb       6.12       8.19       9.06
C       5.33       2.76       3.13
C       5.17       3.73       4.28
C       1.35       7.72       5.68
C       2.60       6.87       5.78
C       7.31       7.20       5.91
C       5.72      11.02      12.13
C       5.88      10.04      10.99
C       9.69       6.05       9.59
C       8.45       6.91       9.49
C       3.74       6.58       9.36
O       4.49       4.79       4.07
O       5.66       3.49       5.45
O       3.73       7.41       5.50
O       2.55       5.65       6.19
O       7.00       6.23       5.15
O       6.47       7.54       6.86
O       6.56       8.98      11.20
O       5.38      10.29       9.82
O       7.32       6.36       9.77
O       8.50       8.12       9.08
O       4.04       7.54      10.11
O       4.58       6.23       8.41
