29

H       8.18       7.85       9.14
H       0.43       6.63      10.77
H       3.17       8.75       8.13
H       1.95       5.24      11.17
H       4.68       7.87       8.99
N      -0.18       8.87       8.33
N       5.29       5.15      10.86
C      -1.80       7.88       9.77
O      -2.11       7.50      10.92
C       1.25      10.33       7.06
O       0.18      10.72       6.44
O       2.35      10.92       6.98
O       2.89       3.11      12.45
C      -0.37       8.00       9.34
O       7.15       7.67       9.27
C       3.98       3.63      12.19
C       6.92       6.50       9.79
O       5.15       3.27      12.66
C       0.67       7.31       9.96
C       1.99       7.50       9.50
C       2.19       8.49       8.52
C       1.09       9.16       7.99
C       4.05       4.82      11.25
C       2.94       5.56      10.83
C       3.12       6.69      10.00
C       4.44       7.02       9.63
C       5.48       6.22      10.08
O      -2.66       8.22       8.87
O       7.79       5.65      10.09
