19

C      15.89       5.45       1.87
O      19.09       3.52      -1.65
C      15.70       4.09       1.50
C      14.60       3.24       2.10
C      14.74       6.38       2.11
C      17.20       5.96       1.82
C      18.15       4.28      -1.11
C      17.81       4.17       0.31
C      18.19       5.25       1.14
C      16.64       3.49       0.64
F      14.93       1.90       2.06
F      14.38       3.59       3.42
F      13.43       3.43       1.38
H      17.43       6.93       2.26
H      16.40       2.56       0.13
H      19.19       5.65       1.09
O      14.87       7.68       1.91
O      13.56       5.88       2.34
O      17.63       5.30      -1.77
