19

C      16.90       5.99       9.18
C      17.00       5.88       6.39
C      15.76       5.98       7.03
C      15.70       5.91       8.44
C      14.62       6.52       6.27
C      14.38       5.85       9.17
C      19.40       6.15       9.31
C      18.14       6.03       8.53
C      18.19       5.92       7.13
F      14.52       5.24      10.41
F      13.46       5.11       8.44
F      13.89       7.13       9.35
H      17.05       5.89       5.30
H      16.86       6.03      10.27
H      19.14       5.92       6.61
O      14.24       5.91       5.15
O      14.25       7.75       6.53
O      20.53       5.73       8.76
O      19.34       6.41      10.60
