19

C      11.93      10.67       5.82
C      10.31       6.67       8.83
C      10.47       7.95       8.08
C      11.01       9.09       8.69
C      10.98      10.32       8.02
C      10.75      10.33       6.64
C       9.89       9.34       6.14
C       9.86       8.09       6.81
C       8.99       9.62       4.97
F       7.89       8.78       4.97
F       8.54      10.93       5.02
F       9.68       9.44       3.79
H      11.44      11.18       8.49
H       9.33       7.26       6.36
H      11.52       9.01       9.63
O      11.84      11.21       4.62
O      13.07      10.26       6.25
O       9.33       5.88       8.49
O      11.10       6.33       9.84
