42

H      10.26      10.39      24.21
H       9.38      10.22      22.65
H       8.53      10.84      24.11
H       5.87       7.96      28.32
H       6.66       6.45      28.84
H       7.63       7.95      28.70
H       4.92       3.47      24.38
H       4.01       5.01      24.21
H       4.82       4.29      22.78
H      10.90       5.02      21.81
H      11.85       5.41      23.28
H      10.94       3.86      23.18
C      11.07       4.55      28.04
C       9.02       5.85      27.48
C       8.15       6.42      26.54
C      10.15       5.16      27.03
C      10.43       5.03      25.67
C       8.41       6.31      25.16
C       7.52       6.98      24.18
O      11.98       3.75      27.62
C       9.57       5.62      24.74
C       6.93       8.96      22.88
C       5.75       8.34      22.48
O      10.87       4.89      29.26
C       5.44       7.03      22.89
C       4.80       9.09      21.62
C       7.82       8.27      23.72
O       7.01       7.11      26.87
C       6.32       6.36      23.74
O       3.86       8.44      21.03
O       4.98      10.36      21.53
O       9.76       5.59      23.38
O       9.01       8.80      24.16
C       6.80       7.38      28.27
C       9.30      10.15      23.75
C      10.94       4.93      22.90
O       6.11       5.09      24.23
C       4.89       4.44      23.87
H       8.84       5.94      28.54
H      11.31       4.48      25.37
H       7.13       9.97      22.55
H       4.52       6.57      22.54
