42

O       1.86       1.67       4.01
O       4.72       5.40       4.07
C       1.84       4.64       7.33
C       2.70       4.07       6.39
C       0.70       5.33       6.90
C       0.42       5.46       5.53
C       2.43       4.17       5.01
C       3.33       3.51       4.03
C       1.28       4.87       4.60
C       3.93       1.53       2.74
C       5.11       2.16       2.34
C       5.41       3.47       2.74
C       6.07       1.39       1.49
C       3.04       2.21       3.57
C       4.52       4.13       3.59
C       1.56       0.33       3.60
C       4.05       3.11       8.12
C       5.95       6.05       3.72
H       2.02       4.55       8.40
H      -0.47       6.01       5.22
C      -0.09       5.56       2.75
H       3.74       0.52       2.41
H       6.33       3.93       2.40
H       0.59       0.09       4.06
H       1.47       0.26       2.50
H       2.33      -0.37       3.95
H       4.98       2.53       8.17
H       4.19       4.04       8.69
H       3.22       2.53       8.55
H       5.93       7.02       4.23
H       6.82       5.47       4.06
H       6.03       6.20       2.63
H      -0.04       5.46       1.66
H      -1.00       5.08       3.12
H      -0.09       6.62       3.03
O      -1.12       6.73       7.52
C      -0.20       5.93       7.92
O       0.02       5.59       9.14
O       7.00       2.03       0.89
O       5.87       0.12       1.42
O       3.83       3.37       6.72
O       1.09       4.89       3.24
