42

C      16.84      10.86      22.07
C      11.93      11.99      28.26
C      13.83      11.72      24.99
C      14.72      10.29      23.23
C      14.95      12.56      24.86
C      12.77      12.04      25.97
C      12.92      11.68      27.32
C      13.73      10.58      24.17
C       9.78      13.07      28.86
C      15.95      12.28      23.92
C      10.79      12.67      27.84
C      15.82      11.15      23.11
C      10.61      13.04      26.50
C      11.60      12.71      25.57
C      14.28      10.64      29.00
C      12.48       8.63      23.55
C      16.09      14.52      25.60
C      10.39      13.77      23.79
H      12.03      11.73      29.31
H      14.66       9.42      22.58
O      16.70       9.79      21.38
H      16.82      12.92      23.79
O       8.88      13.91      28.49
H       9.71      13.59      26.23
O       9.90      12.58      30.04
O      17.78      11.73      21.92
H      15.26      10.15      29.03
H      13.50       9.93      29.30
O      14.10      11.05      27.63
H      14.27      11.51      29.67
O      14.98      13.64      25.71
O      12.61       9.81      24.36
O      11.53      13.02      24.23
H      11.54       8.16      23.86
H      13.32       7.94      23.72
H      12.44       8.88      22.48
H      15.92      15.30      26.36
H      16.15      14.98      24.61
H      17.04      14.01      25.82
H      10.53      13.91      22.71
H      10.33      14.75      24.29
H       9.45      13.22      23.96
