42

H       2.84       5.95      26.40
H       0.44      10.43      32.90
H      -0.75       9.70      31.77
H       0.08       8.68      32.99
H       5.40       6.50      32.74
H       6.58       7.42      31.75
H       5.70       8.23      33.09
C      -0.88       5.35      29.55
C       6.51      12.12      30.27
C       1.35       6.15      28.76
C       2.38       8.13      29.74
C       3.48       9.12      29.83
C       1.25       8.28      30.57
C       2.42       7.05      28.84
C       0.24       6.33      29.59
C       0.18       7.39      30.50
C       3.43      10.31      29.08
O      -0.77       4.34      28.77
C       4.56       8.92      30.71
O       7.40      11.95      31.18
C       5.57       9.88      30.85
C       4.43      11.28      29.20
O      -1.88       5.59      30.33
O       6.41      13.15      29.51
C       5.48      11.06      30.09
C       2.20      11.66      27.53
O       1.30       9.36      31.42
C       0.20       9.54      32.32
O       3.56       6.97      28.08
C       3.65       5.89      27.14
O       2.34      10.43      28.26
O       4.53       7.74      31.41
H       1.37       5.30      28.08
C       5.63       7.48      32.29
H      -0.70       7.49      31.13
H       6.40       9.75      31.53
H       4.40      12.21      28.64
H       1.26      11.57      26.97
H       2.13      12.52      28.21
H       3.04      11.81      26.83
H       4.62       6.02      26.65
H       3.61       4.92      27.65
