9

C      14.81       6.33       6.57
C      12.66       7.20       6.37
N      11.96       2.97       9.45
Cl      13.67       2.78       6.49
Cd      12.72       4.59       8.11
Cl      11.77       6.39       9.74
N      13.48       6.21       6.77
C      10.63       2.84       9.65
C      12.78       1.97       9.86
