324

C      14.98      16.18      11.42
C      14.64      15.07      10.62
C      13.76      15.22       9.53
C      13.15      16.47       9.23
C      13.62       1.10       9.96
C      14.49       0.96      11.06
C      12.13       0.09       8.10
C      13.07       0.17       6.90
C      13.70       1.40       6.55
C      14.56       1.51       5.45
C      14.87       0.37       4.66
C      14.35      15.62       5.07
C      13.49      15.52       6.18
C      11.12      15.43       8.06
C      11.16       1.26       8.20
C      10.63       1.89       7.04
C       9.72       2.95       7.13
C       9.25       3.39       8.38
C       9.66       2.70       9.54
C      10.57       1.64       9.44
C      10.66      14.81       9.26
C       9.74      13.76       9.23
C       9.20      13.31       8.01
C       9.54      13.99       6.82
C      10.47      15.06       6.86
C       8.59       4.59       8.50
C      15.67      15.96      12.60
C      15.66       0.51       3.53
C       8.56      12.10       7.94
C       0.31      15.03      44.71
C       1.43      14.67      43.93
C       1.28      13.82      42.82
C       0.03      13.26      42.47
C      15.39      13.76      43.17
C      15.53      14.60      44.29
C      16.40      12.30      41.29
C      16.37      13.30      40.13
C      15.16      13.95      39.75
C      15.10      14.81      38.64
C      16.27      15.10      37.90
C       1.01      14.59      38.36
C       1.06      13.73      39.47
C       1.03      11.27      41.21
C      15.20      11.36      41.33
C      14.58      10.88      40.14
C      13.51       9.98      40.18
C      13.04       9.47      41.41
C      13.72       9.83      42.59
C      14.80      10.73      42.54
C       1.63      10.73      42.39
C       2.67       9.80      42.32
C       3.12       9.31      41.08
C       2.45       9.73      39.91
C       1.41      10.66      39.98
C      11.84       8.80      41.48
C       0.51      15.70      45.90
C      16.18      15.74      36.68
C       4.33       8.67      40.99
C       1.38      16.37      54.45
C       1.69      15.23      55.22
C       2.59      15.33      56.29
C       3.26       0.05      56.61
C       2.82       1.21      55.90
C       1.93       1.12      54.82
C       4.28       0.11      57.74
C       3.34       0.19      58.95
C       2.73       1.42      59.31
C       1.87       1.53      60.42
C       1.55       0.39      61.19
C       2.05      15.63      60.77
C       2.91      15.54      59.66
C       5.25      15.43      57.76
C       5.28       1.26      57.66
C       5.80       1.89      58.82
C       6.72       2.94      58.75
C       7.21       3.37      57.49
C       6.81       2.68      56.33
C       5.88       1.63      56.42
C       5.68      14.80      56.56
C       6.60      13.73      56.58
C       7.16      13.30      57.79
C       6.85      13.99      58.98
C       5.93      15.05      58.95
C       7.87       4.57      57.38
C       0.66      16.23      53.28
C       0.76       0.51      62.32
C       7.82      12.09      57.85
C      16.33      15.10      21.15
C      15.18      14.78      21.90
C      15.27      13.92      23.00
C      16.49      13.30      23.38
C       1.16      13.73      22.69
C       1.09      14.59      21.57
C       0.05      12.34      24.56
C       0.05      13.34      25.72
C       1.24      14.01      26.10
C       1.28      14.88      27.21
C       0.10      15.15      27.94
C      15.37      14.61      27.48
C      15.35      13.75      26.37
C      15.40      11.32      24.61
C       1.23      11.38      24.56
C       1.86      10.95      25.77
C       2.93      10.04      25.76
C       3.38       9.47      24.55
C       2.70       9.79      23.36
C       1.63      10.70      23.37
C      14.78      10.84      23.42
C      13.73       9.91      23.47
C      13.30       9.38      24.71
C      13.98       9.75      25.88
C      15.03      10.68      25.82
C       4.57       8.79      24.50
C      16.21      15.81      19.98
C       0.17      15.77      29.17
C      12.10       8.73      24.80
C      15.56      16.11      14.93
C      15.06      14.93      15.53
C      15.41      14.64      16.87
C      16.19      15.53      17.63
C       0.20       0.22      17.03
C      16.36       0.50      15.68
C       0.33      15.54      48.22
C       1.50      15.02      48.82
C       1.79      15.35      50.17
C       0.91      16.16      50.92
C      16.24       0.19      50.32
C      15.95      16.35      48.97
C      15.96      16.33       1.27
C       0.87      16.30       1.04
C       1.34      16.30      65.68
C       0.46      16.33      64.58
C      15.55      16.30      64.81
C      15.08      16.30       0.17
C       0.01      15.19      34.34
C       0.07      16.40      33.61
C       0.05      16.36      32.20
C      16.45      15.13      31.50
C      16.39      13.92      32.23
C      16.43      13.97      33.64
C       9.18       9.76       8.18
C      10.40       9.04       8.25
C      10.35       7.63       8.23
C       9.13       6.94       8.18
C       7.91       7.66       8.11
C       7.95       9.07       8.11
C       6.67       9.34      41.12
C       7.38      10.56      41.16
C       8.79      10.53      41.14
C       9.50       9.31      41.11
C       8.79       8.09      41.05
C       7.37       8.12      41.06
C       7.21       9.75      57.66
C       6.01       9.01      57.61
C       6.07       7.60      57.63
C       7.30       6.92      57.68
C       8.51       7.66      57.73
C       8.45       9.07      57.72
C       9.75       9.38      24.74
C       9.03      10.59      24.73
C       7.62      10.55      24.78
C       6.92       9.32      24.82
C       7.64       8.10      24.84
C       9.06       8.15      24.80
H       9.43       3.44       6.27
H      10.93       1.61       6.11
H       9.34       3.00      10.47
H      10.85       1.16      10.31
H      11.03      15.09      10.17
H       9.52      13.27      10.11
H       9.18      13.68       5.92
H      10.69      15.52       5.98
H      13.16      14.59       6.44
H      14.59      14.76       4.56
H      14.94       2.43       5.20
H      13.50       2.25       7.08
H      13.29       2.04       9.74
H      13.51      14.38       9.00
H      14.97      14.13      10.85
H      14.74       1.78      11.61
H       7.65      12.02       7.55
H       7.74       4.67       9.01
H      16.35       1.22       3.50
H      16.39      15.27      12.63
H      13.04       9.74      39.30
H      14.89      11.22      39.23
H      13.40       9.48      43.50
H      15.26      10.97      43.43
H       1.35      11.06      43.31
H       3.15       9.53      43.19
H       2.77       9.41      38.98
H       0.96      10.95      39.11
H       1.97      13.37      39.75
H       1.88      14.79      37.85
H      14.19      15.17      38.34
H      14.29      13.74      40.24
H      14.45      13.47      42.91
H       2.13      13.56      42.31
H       2.37      14.96      44.20
H      14.69      14.86      44.82
H       4.40       7.72      40.71
H      11.76       7.96      42.00
H      15.64       0.07      36.58
H       1.21      16.40      45.96
H       7.00       3.43      59.61
H       5.48       1.61      59.75
H       7.13       2.98      55.41
H       5.61       1.16      55.56
H       5.30      15.08      55.66
H       6.81      13.25      55.70
H       7.23      13.68      59.88
H       5.73      15.52      59.84
H       3.23      14.61      59.39
H       1.80      14.77      61.27
H       1.50       2.45      60.67
H       2.94       2.28      58.79
H       3.19       2.13      56.14
H       2.82      14.47      56.80
H       1.31      14.31      54.97
H       1.71       1.97      54.29
H       8.75      12.03      58.19
H       8.73       4.65      56.88
H       0.07       1.23      62.36
H      16.25      15.80      53.30
H       3.40       9.82      26.64
H       1.56      11.32      26.67
H       3.01       9.41      22.46
H       1.17      10.91      22.49
H      15.05      11.19      22.51
H      13.24       9.66      22.60
H      13.68       9.40      26.80
H      15.49      10.94      26.70
H      14.44      13.37      26.09
H      14.50      14.80      27.98
H       2.18      15.25      27.52
H       2.12      13.81      25.63
H       2.08      13.40      22.97
H      14.40      13.69      23.50
H      14.26      15.14      21.62
H       1.94      14.82      21.06
H      12.04       7.77      25.05
H       4.66       7.95      23.96
H       0.58       0.18      29.26
H      15.74       0.19      19.97
H      15.04      13.79      17.30
H       0.21       1.36      15.24
H       2.63      14.97      50.60
H      15.10       0.23      48.53
H       2.35      16.29      65.52
H      14.07      16.28       0.33
H       0.09       0.74      31.67
H      16.40      13.08      34.16
H      11.24       7.11       8.27
H       7.08       9.60       8.07
H       9.30      11.42      41.17
H       6.86       7.23      41.03
H       5.19       7.07      57.60
H       9.32       9.61      57.76
H       7.10      11.43      24.77
H       9.58       7.27      24.81
N       1.03       1.08      17.78
N      14.22      14.07      14.78
N      15.18      16.42      13.70
N      16.42      15.17      18.88
N      15.40       1.04      51.07
N       2.35      14.16      48.07
N       0.03      15.19      46.98
N       1.29      16.39      52.17
N      14.67      16.23      63.71
N       1.76      16.24       2.14
N      15.40      16.31       2.47
N       1.02      16.32      63.38
N      16.31      12.69      31.54
N       0.20       1.13      34.31
N       0.05      15.06      35.66
N      16.41      15.04      30.18
N       6.69       6.96       8.01
N      11.63       9.74       8.31
N       9.28      11.08       8.20
N       9.25       5.63       8.15
N       9.51       6.87      40.97
N       6.67      11.79      41.21
N       5.35       9.42      41.15
N      10.81       9.46      41.10
N       9.74       6.97      57.83
N       4.76       9.69      57.55
N       7.09      11.06      57.64
N       7.19       5.61      57.71
N       6.94       6.88      24.94
N       9.72      11.82      24.66
N      11.06       9.47      24.67
N       5.61       9.46      24.85
O       0.53       2.23      17.89
O      14.72      12.92      14.67
O      13.09      13.96      15.31
O       2.17       1.18      17.26
O      14.24       0.57      51.17
O       3.50      14.65      47.96
O       2.43      13.03      48.60
O      15.32       2.18      50.55
O      13.89       0.73      63.70
O       2.53       0.73       2.15
O       2.44      15.19       2.11
O      13.98      15.18      63.74
O       0.81      11.96      31.78
O      15.72       1.90      34.07
O       1.26       1.73      34.02
O      15.26      12.07      31.83
O       5.93       7.22       8.98
O      12.36       9.48       7.32
O      12.26       9.46       9.36
O       6.09       7.23       6.94
O       9.25       6.12      41.95
O       6.92      12.51      40.22
O       6.94      12.43      42.26
O       9.23       6.25      39.91
O      10.49       7.24      56.85
O       4.05       9.42      58.55
O       4.13       9.40      56.51
O      10.35       7.26      58.89
O       7.18       6.14      23.95
O       9.49      12.53      25.67
O       9.42      12.47      23.63
O       7.24       6.26      25.98
