13

O      11.28       6.76      14.05
O      12.44       6.19      12.25
O       9.92       3.75      13.97
Zn      11.49       4.79      13.45
Zn      12.05       2.11      12.31
O      10.66       1.63      13.57
C      11.51       2.91      10.09
C      13.73       3.02      14.34
C      12.02       7.09      13.06
O      12.89       3.94      14.61
O      13.72       2.29      13.27
C       9.85       2.48      14.10
O      11.98       1.74      10.38
