12

C      17.90      11.21      10.31
C      19.46      12.52       9.63
C      19.31      11.50       8.70
C      19.91      11.17       7.40
C      20.37      13.66       9.76
O      21.42      13.74       9.03
N      18.32      10.67       9.13
N      18.56      12.34      10.65
O      20.09      14.52      10.62
O      19.40      10.22       6.75
O      20.91      11.82       6.94
H      17.22      10.84      10.82
