12

C      19.94      10.66      13.15
C      21.57      12.05      13.55
C      22.01      10.74      13.69
N      20.24      11.98      13.20
N      20.98       9.87      13.43
C      22.15      13.42      13.73
C      23.35      10.16      13.94
O      23.32      13.59      14.17
O      21.40      14.39      13.40
O      23.43       8.90      13.79
O      24.32      10.88      14.34
H      19.09      10.33      12.95
