12

C      18.70       3.11       3.19
C      17.14       2.43       1.89
C      17.28       1.50       2.90
C      16.69       0.20       3.23
C      16.23       2.56       0.74
H      19.38       3.62       3.56
N      18.28       1.93       3.73
N      18.04       3.45       2.07
O      17.20      -0.45       4.18
O      15.69      -0.26       2.58
O      15.17       1.83       0.66
O      16.51       3.42      -0.12
