12

C       8.53       1.25       3.46
C       6.90       0.85       4.85
C       6.46       0.71       3.53
C       5.12       0.46       2.96
C       6.31       0.67       6.22
H       9.37       1.45       3.13
N       8.23       1.20       4.78
N       7.48       0.98       2.67
O       5.04       0.61       1.70
O       4.15       0.06       3.68
O       5.15       0.23       6.39
O       7.06       1.00       7.19
