12

N      14.25      12.47      10.67
N      14.49      10.95      12.34
O      17.36      12.57      13.74
C      13.83      11.30      11.21
C      15.39      11.97      12.52
C      15.25      12.90      11.50
C      15.84      14.20      11.17
C      16.30      11.84      13.66
O      15.33      14.85      10.22
O      16.84      14.67      11.82
H      13.15      10.78      10.84
O      16.02      10.98      14.52
