12

O      13.14       3.02      13.95
O      11.62       4.62      14.14
O      11.11       6.54      16.23
O      12.45       7.32      17.82
H      15.31       3.64      18.02
C      13.07       5.31      16.84
C      13.22       4.30      15.90
C      14.63       4.01      17.51
C      12.17       6.46      16.96
N      13.98       5.14      17.86
C      12.62       3.97      14.60
N      14.21       3.47      16.33
