42

Tm      11.54       6.70       8.55
Tm      14.29      11.65       8.68
Tm      13.77      12.85       4.03
Tm      11.02       7.90       3.89
C      13.34       8.89      10.26
C      15.76       8.10       6.89
C      11.91      16.36       5.60
C      13.56       7.39       5.80
C      13.46      11.50      11.82
C       9.01       6.86       6.56
C      12.57      15.17       4.99
C      15.15       9.26       7.60
C      11.97      10.66       2.31
C       9.55      11.46       5.69
C      13.41       3.19       6.97
C      11.76      12.16       6.78
C      11.85       8.06       0.76
C      16.30      12.69       6.01
C      12.74       4.38       7.59
C      10.17      10.29       4.97
O      14.15       9.86       7.10
O      12.95       9.93       9.66
O      13.74      14.86       5.36
O       9.43       6.50       7.69
O      13.76      12.24      10.83
O      11.96      14.48       4.12
O      13.21       7.60       4.60
O      13.05       7.72       9.91
O      15.68       9.68       8.67
O       9.73       7.29       5.64
O      12.74       7.29       6.74
O      11.17       9.70       5.47
O      12.36       9.62       2.91
O      11.57       4.69       7.22
O      15.88      13.05       4.89
O      11.55       7.31       1.75
O      13.36       5.07       8.45
O      12.11      11.95       7.98
O      12.27      11.84       2.67
O       9.63       9.88       3.90
O      15.58      12.26       6.94
O      12.57      12.27       5.83
