15

H      -1.49      10.76       0.14
H      -2.51      12.66      -3.41
H      -2.42      14.91      -2.31
H      -1.95      15.02       0.16
N      -1.23      13.42       3.84
N      -1.01      12.10       3.72
N      -1.18      11.72       2.45
N      -1.57      13.91       2.63
N      -2.04      11.60      -1.69
C      -1.75      11.68      -0.37
C      -1.51      12.85       1.78
C      -1.76      12.88       0.35
C      -2.29      12.76      -2.35
C      -2.25      14.00      -1.73
C      -1.99      14.07      -0.36
