15

C      -1.76      12.66      10.48
C      -2.29      12.79      13.18
C      -2.25      11.54      12.56
C      -1.99      11.48      11.19
H      -1.49      14.79      10.69
H      -2.51      12.88      14.24
H      -2.42      10.64      13.14
H      -1.95      10.53      10.67
N      -1.23      12.13       6.99
N      -1.01      13.44       7.11
N      -1.18      13.82       8.38
N      -1.57      11.63       8.20
N      -2.04      13.94      12.52
C      -1.75      13.86      11.20
C      -1.51      12.69       9.05
