15

H      -2.66       8.68      10.97
H      -4.81       8.63       7.42
H      -6.72       7.43       8.51
H      -6.59       6.96      10.98
C      -3.59       8.45      10.46
C      -4.50       7.66      12.61
C      -4.64       7.86      11.18
C      -4.79       8.39       8.48
C      -5.85       7.74       9.10
C      -5.78       7.48      10.46
N      -4.85       7.13      14.66
N      -3.60       7.60      14.55
N      -3.35       7.94      13.28
N      -5.44       7.18      13.46
N      -3.66       8.74       9.15
