15

H       2.66       8.68       0.14
H       4.81       8.62      -3.41
H       6.72       7.42      -2.32
H       6.59       6.95       0.15
N       4.85       7.13       3.83
N       3.60       7.60       3.72
N       3.35       7.93       2.45
N       5.44       7.17       2.63
N       3.66       8.73      -1.68
C       3.59       8.45      -0.37
C       4.49       7.65       1.78
C       4.64       7.85       0.35
C       4.79       8.38      -2.35
C       5.85       7.73      -1.73
C       5.78       7.47      -0.37
