1088

H       4.87      17.59      51.73
H       7.78      14.72      52.21
H       5.35      16.73      46.98
H       6.92      15.20      56.96
H       8.70      16.45      50.45
H       6.60      18.54      53.49
H       8.86      13.51      55.33
H       8.90      15.91      47.96
H       3.65      18.66      48.61
H       6.09      18.75      55.97
H      15.26      22.16      22.12
H      12.35      25.04      22.61
H      14.77      23.03      17.38
H      13.21      24.55      27.36
H      11.42      23.30      20.85
H      13.53      21.21      23.89
H      11.26      26.25      25.72
H      11.23      23.84      18.35
H      16.48      21.09      19.01
H      14.04      21.00      26.37
H      32.37      34.60       7.31
H      35.16      37.53       7.83
H      33.36      35.14       2.59
H      34.66      36.67      12.57
H      33.40      38.47       6.07
H      31.34      36.32       9.08
H      36.36      38.62      10.94
H      34.00      38.68       3.58
H      31.70      33.30       4.01
H      31.11      35.82      11.57
H      27.59       5.15      36.91
H      24.80       2.22      37.43
H      26.61       4.61      32.19
H      25.31       3.09      42.17
H      26.56       1.28      35.67
H      28.62       3.43      38.68
H      23.61       1.13      40.54
H      25.97       1.07      33.19
H      28.26       6.45      33.61
H      28.85       3.93      41.17
H      15.23      17.58      37.42
H      12.34      14.69      36.93
H      14.75      16.72      42.16
H      13.20      15.18      32.18
H      11.40      16.42      38.69
H      13.51      18.52      35.65
H      11.26      13.48      33.81
H      11.19      15.91      41.18
H      16.45      18.65      40.53
H      14.04      18.71      33.16
H       4.90      22.17       7.81
H       7.79      25.06       7.32
H       5.38      23.03      12.56
H       6.93      24.57       2.58
H       8.72      23.33       9.09
H       6.62      21.23       6.05
H       8.87      26.27       4.21
H       8.94      23.85      11.57
H       3.68      21.10      10.92
H       6.09      21.04       3.56
H      27.58      34.62      22.63
H      24.78      37.55      22.11
H      26.60      35.16      27.35
H      25.29      36.67      17.37
H      26.54      38.49      23.87
H      28.60      36.35      20.86
H      23.59      38.63      18.99
H      25.96      38.72      26.35
H      28.26      33.32      25.93
H      28.81      35.83      18.36
H      32.38       5.13      52.23
H      35.19       2.21      51.71
H      33.36       4.59      56.95
H      34.68       3.08      46.97
H      33.43       1.26      53.47
H      31.36       3.40      50.46
H      36.38       1.12      48.60
H      34.01       1.04      55.95
H      31.70       6.43      55.53
H      31.15       3.92      47.96
H      35.18      22.28       7.80
H      32.25      25.06       7.28
H      34.64      23.27      12.52
H      33.12      24.56       2.54
H      31.31      23.29       9.04
H      33.45      21.24       6.03
H      31.18      26.26       4.17
H      31.09      23.89      11.53
H      36.49      21.61      11.10
H      33.96      21.01       3.55
H      24.78      17.48      37.40
H      27.71      14.69      36.89
H      25.33      16.49      42.12
H      26.84      15.20      32.15
H      28.66      16.46      38.64
H      26.52      18.52      35.63
H      28.79      13.49      33.77
H      28.87      15.86      41.13
H      23.48      18.14      40.70
H      26.01      18.74      33.15
H       7.69       5.18      52.22
H       4.87       2.33      51.67
H       6.69       4.62      56.94
H       5.43       3.32      46.96
H       6.64       1.31      53.44
H       8.74       3.42      50.46
H       3.60       1.64      48.37
H       6.05       1.08      55.93
H       8.36       6.47      55.53
H       8.98       3.99      47.98
H      12.44      34.58      22.62
H      15.25      37.42      22.07
H      13.43      35.14      27.33
H      14.69      36.43      17.35
H      13.49      38.45      23.84
H      11.39      36.34      20.86
H      16.53      38.11      18.77
H      14.08      38.68      26.33
H      11.77      33.29      25.92
H      11.14      35.77      18.38
H      24.81      22.28      22.09
H      27.73      25.08      22.60
H      25.34      23.26      17.37
H      26.85      24.58      27.34
H      28.68      23.32      20.84
H      26.54      21.26      23.86
H      28.79      26.29      25.72
H      28.90      23.90      18.37
H      23.50      21.61      18.79
H      26.02      21.05      26.35
H      35.16      17.47      51.69
H      32.24      14.67      52.21
H      34.62      16.49      46.97
H      33.12      15.18      56.95
H      31.29      16.43      50.45
H      33.42      18.50      53.46
H      31.17      13.47      55.33
H      31.06      15.85      47.97
H      36.46      18.14      48.39
H      33.95      18.71      55.96
H      12.45       5.15      36.87
H      15.28       2.32      37.42
H      13.44       4.59      32.15
H      14.71       3.32      42.13
H      13.51       1.29      35.65
H      11.41       3.40      38.63
H      16.56       1.64      40.73
H      14.08       1.04      33.17
H      11.77       6.44      33.57
H      11.18       3.98      41.12
H       7.68      34.60       7.27
H       4.85      37.43       7.82
H       6.69      35.16       2.55
H       5.41      36.43      12.53
H       6.61      38.47       6.05
H       8.72      36.36       9.03
H       3.57      38.11      11.12
H       6.04      38.71       3.57
H       8.36      33.31       3.97
H       8.95      35.78      11.52
H      10.59      15.33      43.52
H       9.24      15.36      45.50
H       8.95      19.97      46.59
H       9.64      23.12      43.17
H       9.54      24.42      13.92
H      10.89      24.39      15.89
H      11.17      19.79      16.99
H      10.48      16.63      13.57
H      34.61       0.48      58.32
H      34.58      38.98       1.10
H      29.97      38.69       2.19
H      26.82      39.35      57.97
H      25.36      39.28      28.72
H      25.39       0.78      30.70
H      29.99       1.06      31.79
H      33.15       0.39      28.37
H      29.46      24.50      15.99
H      30.80      24.48      14.01
H      31.09      19.87      12.92
H      30.42      16.71      16.34
H      30.50      15.25      45.60
H      29.16      15.28      43.62
H      28.88      19.88      42.52
H      29.55      23.04      45.94
H       5.44      39.28       1.20
H       5.46       0.78      58.42
H      10.07       1.06      57.32
H      13.23       0.39       1.54
H      14.69       0.47      30.80
H      14.66      38.97      28.81
H      10.06      38.70      27.72
H       6.89      39.37      31.14
H      30.50      35.24      13.92
H      29.16      35.27      15.90
H      28.88       0.04      16.99
H      29.56       3.20      13.58
H      29.47       4.51      43.52
H      30.80       4.48      45.50
H      31.08      39.71      46.60
H      30.40      36.55      43.18
H      14.62      20.40      28.72
H      14.59      19.06      30.70
H       9.98      18.77      31.79
H       6.82      19.45      28.37
H       5.51      19.36      58.32
H       5.54      20.70       1.10
H      10.15      20.97       2.19
H      13.31      20.30      57.98
H       9.55       4.59      45.60
H      10.88       4.56      43.61
H      11.16      39.79      42.52
H      10.51      36.63      45.94
H      10.58      35.16      16.00
H       9.25      35.19      14.01
H       8.97      39.80      12.91
H       9.63       3.12      16.33
H      25.43      19.35      30.80
H      25.46      20.70      28.82
H      30.07      20.98      27.72
H      33.23      20.30      31.14
H      34.53      20.39       1.20
H      34.50      19.05      58.42
H      29.90      18.78      57.32
H      26.74      19.46       1.53
H       5.74      11.14      53.42
H       5.76       8.76      53.36
H      10.25       7.64      54.43
H      12.87      10.70      56.85
H      14.38      28.61      23.82
H      14.37      30.99      23.75
H       9.88      32.11      24.82
H       7.26      29.05      27.25
H      38.72      35.49       9.04
H       1.26      35.50       8.97
H       2.39       0.16      10.03
H      39.19       2.79      12.47
H      21.24       4.26      38.64
H      18.86       4.24      38.57
H      17.74      39.59      39.63
H      20.77      36.96      42.07
H      14.38      11.12      35.69
H      14.37       8.73      35.74
H       9.88       7.61      34.67
H       7.25      10.69      32.28
H       5.75      28.64       6.09
H       5.76      31.02       6.14
H      10.25      32.14       5.07
H      12.88      29.06       2.67
H      21.22      35.50      20.87
H      18.84      35.50      20.93
H      17.71       0.16      19.87
H      20.77       2.79      17.46
H      38.75       4.26      50.48
H       1.29       4.25      50.53
H       2.42      39.59      49.47
H      39.19      36.96      47.06
H      34.30      28.61       6.09
H      34.29      31.00       6.17
H      29.80      32.13       5.11
H      27.17      29.11       2.66
H      25.67      11.14      35.69
H      25.68       8.75      35.78
H      30.16       7.62      34.72
H      32.79      10.64      32.26
H      25.67      28.64      23.82
H      25.67      31.02      23.75
H      30.16      32.16      24.82
H      32.80      29.11      27.24
H      34.30      11.11      53.42
H      34.29       8.73      53.36
H      29.80       7.59      54.42
H      27.17      10.64      56.85
H      18.81      15.54      38.61
H      21.19      15.55      38.53
H      22.31      20.04      39.59
H      19.27      22.66      42.04
H       1.33      24.21       9.00
H      38.78      24.20       8.92
H      37.65      19.71       9.99
H       0.86      17.09      12.44
H       1.30      15.54      50.51
H      38.75      15.55      50.57
H      37.63      20.04      49.51
H       0.85      22.67      47.09
H      18.83      24.21      20.91
H      21.21      24.20      20.97
H      22.34      19.71      19.90
H      19.28      17.08      17.49
C       6.85      17.01      51.29
C       5.55      17.46      50.97
C       5.14      17.66      49.63
C       6.08      17.43      48.59
C       7.40      17.01      48.88
C       7.76      16.78      50.23
C       7.18      16.69      52.65
C       6.94      17.60      53.71
C       7.17      17.25      55.06
C       7.61      15.93      55.35
C       7.84      14.99      54.31
C       7.64      15.40      52.97
C       8.32      16.72      47.87
C       3.83      18.02      49.35
C       6.89      18.17      56.07
C       8.22      13.68      54.59
C      13.27      22.74      21.69
C      14.58      22.29      21.37
C      14.99      22.10      20.03
C      14.05      22.32      18.98
C      12.72      22.74      19.27
C      12.37      22.97      20.63
C      12.95      23.06      23.05
C      13.18      22.15      24.11
C      12.95      22.51      25.46
C      12.51      23.83      25.75
C      12.29      24.76      24.71
C      12.49      24.36      23.37
C      11.80      23.03      18.27
C      16.30      21.73      19.75
C      13.24      21.58      26.47
C      11.91      26.07      24.99
C      32.88      36.60       6.89
C      32.49      35.28       6.56
C      32.35      34.86       5.21
C      32.57      35.81       4.18
C      32.93      37.15       4.48
C      33.11      37.52       5.84
C      33.19      36.92       8.25
C      32.28      36.68       9.31
C      32.62      36.91      10.66
C      33.94      37.36      10.96
C      34.88      37.59       9.92
C      34.48      37.39       8.58
C      33.21      38.09       3.48
C      32.07      33.53       4.90
C      31.69      36.62      11.67
C      36.19      37.97      10.21
C      27.08       3.16      36.49
C      27.47       4.47      36.16
C      27.62       4.89      34.81
C      27.40       3.94      33.78
C      27.04       2.60      34.08
C      26.86       2.24      35.44
C      26.78       2.83      37.85
C      27.69       3.08      38.91
C      27.34       2.84      40.27
C      26.03       2.39      40.56
C      25.09       2.16      39.53
C      25.48       2.36      38.18
C      26.76       1.66      33.08
C      27.89       6.23      34.50
C      28.27       3.13      41.27
C      23.78       1.78      39.81
C      13.25      16.99      37.85
C      14.55      17.44      38.17
C      14.96      17.64      39.51
C      14.03      17.42      40.56
C      12.70      16.99      40.27
C      12.35      16.76      38.91
C      12.93      16.67      36.49
C      13.17      17.58      35.43
C      12.94      17.22      34.08
C      12.50      15.90      33.79
C      12.27      14.97      34.83
C      12.47      15.37      36.17
C      11.78      16.70      41.27
C      16.27      18.01      39.79
C      13.22      18.14      33.07
C      11.90      13.66      34.55
C       6.88      22.76       8.25
C       5.58      22.31       8.57
C       5.17      22.11       9.91
C       6.10      22.33      10.95
C       7.43      22.76      10.66
C       7.78      22.99       9.31
C       7.20      23.08       6.89
C       6.96      22.17       5.83
C       7.19      22.53       4.48
C       7.63      23.85       4.18
C       7.86      24.79       5.23
C       7.66      24.38       6.57
C       8.35      23.05      11.67
C       3.85      21.74      10.19
C       6.90      21.61       3.47
C       8.23      26.10       4.94
C      27.06      36.62      23.05
C      27.46      35.30      23.38
C      27.60      34.88      24.73
C      27.39      35.84      25.76
C      27.02      37.18      25.46
C      26.84      37.54      24.10
C      26.76      36.95      21.69
C      27.67      36.70      20.63
C      27.32      36.93      19.28
C      26.00      37.37      18.98
C      25.06      37.61      20.01
C      25.46      37.41      21.36
C      26.74      38.11      26.46
C      27.88      33.55      25.03
C      28.25      36.64      18.27
C      23.76      37.98      19.72
C      32.90       3.13      52.65
C      32.51       4.45      52.98
C      32.36       4.87      54.33
C      32.58       3.91      55.36
C      32.94       2.57      55.06
C      33.13       2.21      53.70
C      33.21       2.81      51.29
C      32.30       3.05      50.23
C      32.64       2.82      48.88
C      33.96       2.38      48.58
C      34.90       2.15      49.62
C      34.50       2.35      50.96
C      33.22       1.64      56.06
C      32.08       6.20      54.64
C      31.72       3.11      47.87
C      36.21       1.78      49.33
C      33.18      22.78       8.22
C      34.50      22.39       8.55
C      34.92      22.26       9.90
C      33.97      22.47      10.93
C      32.63      22.82      10.63
C      32.26      23.00       9.27
C      32.85      23.08       6.86
C      33.10      22.17       5.80
C      32.87      22.52       4.45
C      32.42      23.84       4.15
C      32.19      24.78       5.19
C      32.39      24.38       6.53
C      31.69      23.10      11.63
C      36.26      21.98      10.21
C      33.16      21.59       3.44
C      31.83      26.09       4.90
C      26.78      16.98      37.82
C      25.47      17.36      38.16
C      25.04      17.50      39.50
C      26.00      17.29      40.54
C      27.34      16.93      40.23
C      27.70      16.75      38.88
C      27.11      16.67      36.46
C      26.87      17.58      35.41
C      27.10      17.23      34.05
C      27.54      15.91      33.75
C      27.77      14.97      34.79
C      27.57      15.37      36.13
C      28.27      16.65      41.23
C      23.71      17.77      39.81
C      26.81      18.16      33.05
C      28.14      13.66      34.51
C       7.17       3.18      52.63
C       7.57       4.49      52.97
C       7.71       4.91      54.32
C       7.49       3.95      55.35
C       7.12       2.61      55.04
C       6.94       2.26      53.68
C       6.87       2.87      51.27
C       7.79       3.10      50.22
C       7.44       2.92      48.86
C       6.11       2.54      48.55
C       5.15       2.31      49.57
C       5.56       2.46      50.92
C       6.84       1.67      56.03
C       7.98       6.24      54.63
C       8.38       3.20      47.86
C       3.82       2.02      49.26
C      12.95      36.57      23.03
C      12.56      35.26      23.37
C      12.42      34.85      24.72
C      12.64      35.81      25.75
C      13.01      37.14      25.43
C      13.19      37.50      24.07
C      13.26      36.89      21.66
C      12.34      36.65      20.62
C      12.68      36.84      19.26
C      14.02      37.21      18.94
C      14.98      37.44      19.97
C      14.57      37.29      21.32
C      13.28      38.08      26.43
C      12.14      33.51      25.03
C      11.75      36.55      18.26
C      16.31      37.73      19.66
C      26.81      22.80      21.67
C      25.49      22.41      21.33
C      25.07      22.26      19.99
C      26.02      22.48      18.95
C      27.36      22.84      19.26
C      27.72      23.02      20.61
C      27.13      23.11      23.03
C      26.89      22.19      24.08
C      27.12      22.54      25.44
C      27.55      23.86      25.74
C      27.78      24.80      24.70
C      27.59      24.40      23.36
C      28.30      23.12      18.26
C      23.73      21.98      19.68
C      26.83      21.62      26.44
C      28.15      26.11      24.99
C      33.16      16.96      51.27
C      34.47      17.35      50.94
C      34.90      17.49      49.59
C      33.94      17.28      48.56
C      32.60      16.91      48.86
C      32.24      16.73      50.22
C      32.83      16.65      52.63
C      33.08      17.56      53.69
C      32.85      17.21      55.04
C      32.41      15.89      55.34
C      32.18      14.95      54.30
C      32.38      15.35      52.96
C      31.67      16.63      47.86
C      36.23      17.77      49.29
C      33.14      18.14      56.05
C      31.82      13.64      54.59
C      12.97       3.16      36.46
C      12.58       4.47      36.12
C      12.43       4.88      34.77
C      12.65       3.92      33.74
C      13.02       2.58      34.05
C      13.21       2.23      35.41
C      13.28       2.85      37.83
C      12.36       3.09      38.87
C      12.71       2.90      40.23
C      14.04       2.53      40.55
C      15.00       2.30      39.52
C      14.59       2.45      38.17
C      13.30       1.65      33.06
C      12.15       6.21      34.46
C      11.77       3.18      41.23
C      16.33       2.02      39.83
C       7.16      36.60       6.86
C       7.56      35.29       6.52
C       7.70      34.87       5.17
C       7.48      35.83       4.14
C       7.11      37.17       4.45
C       6.92      37.52       5.81
C       6.85      36.90       8.22
C       7.77      36.67       9.27
C       7.42      36.85      10.63
C       6.08      37.22      10.94
C       5.12      37.45       9.92
C       5.54      37.30       8.57
C       6.83      38.11       3.46
C       7.98      33.54       4.86
C       8.36      36.57      11.62
C       3.79      37.73      10.23
C      10.85      17.43      43.39
C      10.55      18.64      44.04
C       9.75      18.68      45.22
C       9.28      17.46      45.78
C       9.59      16.24      45.13
C      10.37      16.23      43.95
C       9.95      21.07      45.25
C      10.74      21.04      44.08
C      11.25      22.18      43.49
C       9.27      22.32      13.78
C       9.58      21.11      14.44
C      10.38      21.07      15.62
C      10.85      22.29      16.18
C      10.54      23.51      15.53
C       9.76      23.52      14.35
C      10.17      18.68      15.65
C       9.38      18.72      14.48
C       8.87      17.57      13.89
C      32.51       0.74      58.18
C      31.29       0.43      58.84
C      31.26      39.48       0.82
C      32.48      39.01       1.38
C      33.69      39.33       0.73
C      33.71       0.26      58.75
C      28.87      39.68       0.85
C      28.90       0.63      58.88
C      27.76       1.13      58.28
C      27.46      39.02      28.58
C      28.67      39.32      29.23
C      28.71       0.27      30.42
C      27.49       0.74      30.98
C      26.27       0.43      30.33
C      26.26      39.49      29.15
C      31.10       0.07      30.45
C      31.06      39.12      29.28
C      32.21      38.62      28.68
C      29.20      22.40      16.13
C      29.50      21.19      15.48
C      30.30      21.16      14.30
C      30.77      22.37      13.73
C      30.45      23.59      14.38
C      29.68      23.61      15.56
C      30.10      18.76      14.27
C      29.31      18.80      15.44
C      28.81      17.65      16.03
C      30.76      17.35      45.74
C      30.46      18.56      45.08
C      29.67      18.60      43.90
C      29.20      17.38      43.33
C      29.51      16.16      43.99
C      30.28      16.15      45.17
C      29.87      20.99      43.87
C      30.66      20.96      45.04
C      31.16      22.10      45.64
C       7.54      39.01       1.33
C       8.75      39.32       0.68
C       8.79       0.27      58.70
C       7.57       0.74      58.13
C       6.35       0.43      58.79
C       6.34      39.49       0.76
C      11.18       0.07      58.67
C      11.14      39.12       0.63
C      12.29      38.62       1.23
C      12.59       0.74      30.94
C      11.37       0.44      30.28
C      11.34      39.48      29.09
C      12.56      39.02      28.53
C      13.77      39.32      29.19
C      13.79       0.26      30.36
C       8.95      39.69      29.06
C       8.98       0.63      30.23
C       7.84       1.14      30.83
C      30.77      37.34      13.78
C      30.46      38.56      14.44
C      29.67      38.59      15.62
C      29.20      37.37      16.18
C      29.51      36.16      15.53
C      30.28      36.14      14.35
C      29.88       1.15      15.65
C      30.66       1.11      14.48
C      31.17       2.26      13.88
C      29.20       2.41      43.38
C      29.50       1.19      44.04
C      30.29       1.16      45.22
C      30.76       2.38      45.79
C      30.45       3.59      45.13
C      29.68       3.61      43.95
C      30.08      38.60      45.26
C      29.30      38.64      44.09
C      28.79      37.49      43.49
C      12.52      20.66      28.58
C      11.30      20.36      29.24
C      11.27      19.56      30.42
C      12.49      19.10      30.98
C      13.70      19.41      30.33
C      13.72      20.18      29.15
C       8.88      19.77      30.45
C       8.91      20.55      29.28
C       7.76      21.06      28.68
C       7.61      19.09      58.18
C       8.83      19.39      58.84
C       8.86      20.19       0.82
C       7.64      20.66       1.38
C       6.43      20.35       0.73
C       6.41      19.57      58.75
C      11.25      19.98       0.85
C      11.22      19.19      58.88
C      12.36      18.69      58.29
C       9.29       2.49      45.74
C       9.59       1.27      45.08
C      10.38       1.24      43.90
C      10.84       2.46      43.33
C      10.53       3.68      43.98
C       9.76       3.69      45.17
C      10.17      38.69      43.87
C       9.39      38.72      45.04
C       8.89      37.57      45.64
C      10.84      37.26      16.14
C      10.54      38.48      15.48
C       9.75      38.51      14.29
C       9.29      37.29      13.73
C       9.60      36.08      14.38
C      10.36      36.06      15.56
C       9.96       1.07      14.26
C      10.74       1.03      15.43
C      11.24       2.18      16.03
C      27.53      19.09      30.93
C      28.75      19.39      30.28
C      28.78      20.19      29.09
C      27.56      20.66      28.53
C      26.35      20.35      29.19
C      26.33      19.57      30.36
C      31.17      19.98      29.06
C      31.14      19.20      30.23
C      32.28      18.69      30.83
C      32.43      20.66       1.33
C      31.22      20.36       0.67
C      31.18      19.57      58.70
C      32.40      19.09      58.13
C      33.62      19.40      58.79
C      33.63      20.18       0.76
C      28.79      19.78      58.66
C      28.83      20.56       0.63
C      27.68      21.07       1.22
C       7.76      11.37      54.04
C       8.94      10.65      54.33
C       8.97       9.22      54.28
C       7.78       8.52      53.95
C       6.62       9.25      53.63
C       6.61      10.65      53.67
C      11.31       9.29      54.81
C      11.28      10.70      54.88
C      12.40      11.46      55.18
C      12.37      28.38      24.44
C      11.18      29.10      24.73
C      11.15      30.53      24.68
C      12.35      31.23      24.35
C      13.51      30.51      24.02
C      13.52      29.10      24.07
C       8.81      30.47      25.21
C       8.85      29.06      25.29
C       7.73      28.29      25.59
C      38.50      37.51       9.67
C      39.22      38.69       9.95
C       0.81      38.72       9.89
C       1.51      37.53       9.56
C       0.78      36.36       9.24
C      39.21      36.36       9.29
C       0.75       1.22      10.42
C      39.18       1.19      10.50
C      38.42       2.31      10.81
C      21.47       2.24      39.26
C      20.74       1.06      39.55
C      19.32       1.03      39.49
C      18.62       2.22      39.16
C      19.35       3.39      38.84
C      20.75       3.39      38.89
C      19.38      38.53      40.03
C      20.79      38.56      40.11
C      21.55      37.44      40.41
C      12.37      11.35      35.08
C      11.18      10.63      34.79
C      11.15       9.20      34.83
C      12.35       8.49      35.15
C      13.51       9.22      35.48
C      13.52      10.63      35.45
C       8.81       9.26      34.31
C       8.84      10.67      34.25
C       7.72      11.43      33.96
C       7.76      28.41       5.48
C       8.95      29.13       5.19
C       8.98      30.55       5.23
C       7.78      31.26       5.55
C       6.62      30.53       5.88
C       6.61      29.13       5.84
C      11.32      30.49       4.70
C      11.29      29.08       4.64
C      12.41      28.32       4.35
C      21.45      37.51      20.26
C      20.72      38.70      19.97
C      19.29      38.72      20.02
C      18.59      37.53      20.34
C      19.32      36.36      20.66
C      20.73      36.36      20.62
C      19.35       1.23      19.49
C      20.76       1.20      19.42
C      21.52       2.32      19.13
C      38.52       2.24      49.86
C      39.24       1.06      49.57
C       0.83       1.03      49.62
C       1.54       2.22      49.94
C       0.81       3.39      50.27
C      39.24       3.39      50.23
C       0.77      38.52      49.09
C      39.20      38.56      49.02
C      38.44      37.44      48.73
C      32.29      28.40       5.46
C      31.10      29.12       5.18
C      31.07      30.55       5.25
C      32.27      31.25       5.58
C      33.43      30.51       5.90
C      33.44      29.11       5.84
C      28.73      30.49       4.71
C      28.77      29.09       4.62
C      27.65      28.33       4.31
C      27.68      11.36      35.07
C      28.86      10.63      34.78
C      28.89       9.21      34.85
C      27.70       8.50      35.19
C      26.54       9.24      35.50
C      26.53      10.64      35.45
C      31.23       9.26      34.31
C      31.20      10.67      34.22
C      32.32      11.43      33.91
C      27.68      28.42      24.44
C      28.86      29.15      24.73
C      28.89      30.57      24.67
C      27.69      31.27      24.35
C      26.53      30.54      24.02
C      26.53      29.14      24.07
C      31.23      30.52      25.20
C      31.20      29.11      25.28
C      32.32      28.35      25.58
C      32.28      11.33      54.04
C      31.10      10.61      54.33
C      31.08       9.18      54.28
C      32.27       8.48      53.95
C      33.43       9.21      53.63
C      33.44      10.61      53.67
C      28.73       9.23      54.81
C      28.76      10.64      54.88
C      27.64      11.40      55.18
C      18.58      17.55      39.23
C      19.30      18.73      39.51
C      20.73      18.77      39.45
C      21.43      17.57      39.12
C      20.70      16.41      38.80
C      19.30      16.40      38.85
C      20.67      21.11      39.99
C      19.26      21.07      40.07
C      18.50      22.19      40.37
C       1.55      22.20       9.62
C       0.83      21.02       9.91
C      39.24      20.99       9.85
C      38.53      22.18       9.52
C      39.27      23.34       9.20
C       0.83      23.35       9.24
C      39.29      18.65      10.39
C       0.87      18.68      10.47
C       1.63      17.56      10.78
C       1.52      17.56      49.90
C       0.80      18.74      49.61
C      39.21      18.77      49.66
C      38.51      17.57      49.98
C      39.24      16.41      50.31
C       0.80      16.40      50.27
C      39.27      21.11      49.13
C       0.84      21.08      49.06
C       1.60      22.20      48.77
C      18.60      22.20      20.30
C      19.33      21.01      20.01
C      20.75      20.98      20.06
C      21.46      22.18      20.38
C      20.73      23.34      20.70
C      19.32      23.35      20.67
C      20.69      18.64      19.52
C      19.29      18.67      19.46
C      18.52      17.55      19.16
N       9.49      19.90      45.78
N      11.00      19.82      43.54
N      11.64      17.47      42.30
N       8.48      17.50      46.86
N      10.63      19.85      16.18
N       9.12      19.93      13.93
N       8.49      22.29      12.70
N      11.64      22.25      17.26
N      30.03      39.22       1.37
N      30.11       0.88      58.33
N      32.47       1.52      57.10
N      32.44      38.22       2.46
N      29.93       0.53      30.98
N      29.85      38.87      28.73
N      27.49      38.23      27.50
N      27.53       1.53      32.06
N      30.56      19.93      13.74
N      29.06      20.01      15.99
N      28.42      22.37      17.22
N      31.56      22.33      12.66
N      29.41      19.82      43.34
N      30.91      19.74      45.59
N      31.55      17.38      46.82
N      28.41      17.42      42.26
N      10.01       0.53      58.14
N       9.93      38.87       1.18
N       7.57      38.23       2.42
N       7.61       1.53      57.06
N      10.12      39.22      28.53
N      10.20       0.89      30.78
N      12.55       1.52      32.02
N      12.52      38.22      27.46
N      29.41      39.82      16.18
N      30.92      39.74      13.93
N      31.55      37.38      12.69
N      28.41      37.42      17.26
N      30.55      39.77      45.78
N      29.05       0.01      43.54
N      28.42       2.37      42.30
N      31.55       2.33      46.86
N      10.04      19.30      30.98
N      10.12      20.81      28.73
N      12.48      21.44      27.50
N      12.44      18.31      32.06
N      10.09      20.44       1.38
N      10.00      18.94      58.33
N       7.65      18.31      57.10
N       7.69      21.45       2.46
N      10.63       0.02      43.34
N       9.14       0.10      45.59
N       8.51       2.45      46.82
N      11.63       2.42      42.25
N       9.50      39.74      13.73
N      10.99      39.66      15.99
N      11.62      37.30      17.22
N       8.50      37.33      12.65
N      30.01      20.45      28.54
N      29.93      18.94      30.78
N      27.57      18.31      32.02
N      27.61      21.45      27.46
N      29.96      19.31      58.14
N      30.04      20.81       1.18
N      32.40      21.45       2.42
N      32.36      18.30      57.06
N      10.18       8.61      54.50
N      10.09      11.30      54.63
N       7.65      12.70      53.98
N       7.67       7.20      53.84
N       9.95      31.15      24.90
N      10.03      28.45      25.02
N      12.48      27.06      24.38
N      12.45      32.55      24.23
N       1.43       0.08      10.11
N      38.57       0.01      10.25
N      37.17      37.40       9.61
N       2.83      37.42       9.44
N      18.70      39.66      39.72
N      21.40      39.74      39.85
N      22.79       2.35      39.21
N      17.30       2.33      39.04
N       9.95       8.58      34.60
N      10.03      11.28      34.51
N      12.47      12.67      35.15
N      12.46       7.17      35.26
N      10.18      31.17       5.00
N      10.10      28.47       4.90
N       7.66      27.08       5.55
N       7.67      32.58       5.66
N      18.67       0.09      19.79
N      21.37       0.01      19.68
N      22.77      37.41      20.32
N      17.27      37.41      20.45
N       1.45      39.67      49.39
N      38.59      39.74      49.28
N      37.20       2.34      49.93
N       2.86       2.34      50.05
N      29.87      31.17       5.02
N      29.95      28.47       4.88
N      32.39      27.07       5.52
N      32.38      32.57       5.70
N      30.09       8.58      34.63
N      30.02      11.28      34.48
N      27.58      12.68      35.12
N      27.59       7.19      35.31
N      30.09      31.20      24.90
N      30.02      28.50      25.02
N      27.58      27.09      24.38
N      27.58      32.59      24.23
N      29.88       8.56      54.50
N      29.95      11.25      54.62
N      32.38      12.66      53.98
N      32.38       7.16      53.84
N      21.35      19.97      39.68
N      18.65      19.89      39.81
N      17.25      17.45      39.17
N      22.75      17.46      39.01
N      38.62      19.79      10.08
N       1.48      19.86      10.21
N       2.88      22.30       9.57
N      37.21      22.29       9.40
N      38.59      19.97      49.43
N       1.45      19.90      49.32
N       2.85      17.46      49.96
N      37.19      17.46      50.09
N      21.37      19.78      19.83
N      18.68      19.86      19.72
N      17.28      22.30      20.36
N      22.78      22.29      20.49
O       5.68      17.60      47.29
O       7.79      15.53      56.65
O      14.44      22.15      17.69
O      12.34      24.22      27.05
O      32.46      35.43       2.87
O      34.32      37.54      12.26
O      27.50       4.32      32.47
O      25.64       2.21      41.86
O      14.42      17.59      41.85
O      12.33      15.51      32.49
O       5.71      22.16      12.25
O       7.80      24.24       2.89
O      27.50      35.45      27.07
O      25.62      37.54      17.68
O      32.47       4.30      56.67
O      34.34       2.21      47.28
O      34.36      22.37      12.24
O      32.25      24.22       2.85
O      25.61      17.39      41.84
O      27.71      15.53      32.45
O       7.59       4.33      56.66
O       5.73       2.42      47.24
O      12.53      35.43      27.05
O      14.40      37.33      17.64
O      25.63      22.37      17.65
O      27.72      24.25      27.04
O      34.33      17.39      47.25
O      32.24      15.51      56.64
O      12.54       4.30      32.44
O      14.42       2.42      41.85
O       7.59      35.45       2.83
O       5.70      37.33      12.25
O       9.67      22.24      45.87
O      12.36      22.12      42.98
O      10.51      23.04      43.00
O      10.45      17.51      16.27
O       7.76      17.63      13.38
O       9.61      16.71      13.40
O      27.70      39.40       1.47
O      27.81       2.24      57.76
O      26.90       0.38      57.80
O      32.27       0.35      31.07
O      32.15      37.51      28.16
O      33.07      39.37      28.20
O      30.38      17.59      13.64
O      27.70      17.71      16.55
O      29.56      16.79      16.52
O      29.59      22.16      43.24
O      32.27      22.04      46.15
O      30.41      22.96      46.12
O      12.35       0.35      58.04
O      12.23      37.51       1.75
O      13.15      39.37       1.71
O       7.78      39.41      28.44
O       7.90       2.25      31.35
O       6.98       0.39      31.31
O      29.59       2.32      16.27
O      32.28       2.20      13.37
O      30.42       3.12      13.40
O      30.36      37.43      45.88
O      27.68      37.55      42.98
O      29.53      36.63      43.01
O       7.71      19.48      31.07
O       7.82      22.17      28.17
O       6.91      20.31      28.20
O      12.42      20.26       1.47
O      12.30      17.58      57.77
O      13.22      19.43      57.80
O      10.46      37.52      43.24
O       7.79      37.63      46.16
O       9.64      36.72      46.12
O       9.68       2.24      13.64
O      12.35       2.12      16.55
O      10.49       3.04      16.51
O      32.34      20.27      28.44
O      32.23      17.58      31.34
O      33.14      19.43      31.31
O      27.62      19.49      58.04
O      27.74      22.18       1.73
O      26.82      20.33       1.71
O      12.47       8.60      55.01
O      12.52      12.55      54.64
O      12.97      11.37      56.28
O       7.66      31.15      25.41
O       7.61      27.20      25.04
O       7.16      28.39      26.68
O       1.44       2.38      10.62
O      37.33       2.43      10.27
O      38.52       2.88      11.90
O      18.69      37.37      40.22
O      22.64      37.32      39.88
O      21.45      36.87      41.50
O       7.66       8.57      34.10
O       7.60      12.52      34.52
O       7.15      11.35      32.86
O      12.47      31.18       4.50
O      12.53      27.24       4.91
O      12.98      28.40       3.26
O      18.66       2.38      19.29
O      22.61       2.44      19.68
O      21.43       2.89      18.04
O       1.46      37.37      48.89
O      37.36      37.31      49.28
O      38.53      36.86      47.64
O      27.58      31.18       4.52
O      27.52      27.23       4.85
O      27.07      28.43       3.22
O      32.38       8.57      34.11
O      32.44      12.52      34.44
O      32.89      11.32      32.82
O      32.38      31.21      25.40
O      32.45      27.27      25.03
O      32.89      28.45      26.67
O      27.58       8.54      55.01
O      27.52      12.49      54.64
O      27.07      11.31      56.28
O      21.36      22.26      40.19
O      17.41      22.31      39.84
O      18.60      22.76      41.47
O      38.61      17.50      10.59
O       2.72      17.44      10.24
O       1.53      16.99      11.87
O      38.58      22.26      48.93
O       2.69      22.32      49.32
O       1.52      22.77      47.67
O      21.38      17.49      19.32
O      17.44      17.43      19.71
O      18.61      16.98      18.07
