14

C       2.75       6.70       4.69
C       4.04       8.02       3.02
O       2.58       4.91       6.83
O       0.27       5.07       6.84
C       1.46       5.38       6.37
O       5.33       9.33       1.44
O       3.02       9.49       1.46
H       1.93       8.09       3.18
C       1.56       6.36       5.25
H       4.96       7.59       3.40
H       0.64       6.79       4.86
C       2.85       7.66       3.56
C       4.14       9.01       1.91
H       3.67       6.26       5.06
