13

O      15.22      25.73      23.32
Zn      15.13      24.11      24.34
Zn      15.66      23.03      21.10
C      17.61      22.99      23.05
O      15.39      24.98      21.15
O      13.49      23.32      23.80
O      14.18      22.15      22.07
C      15.24      21.56      18.98
C      13.33      22.46      22.94
O      16.64      22.97      23.83
O      17.53      22.92      21.77
C      15.16      25.90      21.97
O      15.14      22.82      19.22
