15

O       8.24       8.18      23.16
O       6.71      10.94      24.46
O       5.43      10.85      26.29
O       6.50       8.23      25.58
O       4.76       8.45      23.20
O       3.56       8.38      25.12
O       5.53       8.26      28.36
C       5.51       7.05      28.24
C       6.32      11.43      25.57
C       3.66       8.26      23.85
Zn       6.57       9.12      23.65
C       8.27       6.94      23.33
Zn       4.79       8.96      26.57
O       7.28       6.25      23.57
Zn       6.31       6.27      25.47
