13

O       5.69       7.64      11.78
O       5.77       4.73       7.69
C       5.70       4.56       9.04
O       5.94       5.48       9.85
O       7.19       7.49       7.18
O       8.08       7.55       9.23
O       4.73       8.31       8.93
O       4.04       7.15       7.20
C       5.79       8.90      12.02
Zn       6.21       7.44       9.91
C       3.88       8.01       8.06
C       8.16       7.48       7.96
Zn       5.68       6.35       6.67
