14

C       3.21      15.62      14.14
O       5.13      17.28      16.70
O       4.22      15.56      13.42
O       3.16      15.62      15.45
O       5.76      13.36      14.32
C       5.01      12.71      15.15
C       5.73      17.89      15.81
Zn       4.63      15.24      16.74
Zn       6.15      15.35      14.12
C       7.61      14.99      16.69
O       6.17      17.31      14.71
O       4.46      13.20      16.16
O       7.74      15.06      15.42
O       6.55      14.97      17.33
