14

O       4.61      17.34      30.75
C       3.61      16.58      30.74
O       6.86      16.19      29.31
C       5.39      16.29      33.88
C       8.10      14.41      31.98
C       6.52      15.06      29.03
O       7.01      13.78      32.25
O       8.23      15.63      31.69
O       5.87      14.20      29.78
Zn       5.14      14.28      31.71
Zn       6.61      16.88      31.21
O       4.88      15.20      33.53
O       6.13      17.06      33.20
O       3.58      15.35      31.02
