14

Zn      14.59       0.95      16.21
Zn      16.06      -1.65      15.71
O      14.33       0.04      18.03
O      15.58      -1.83      17.70
C      13.06      -1.35      15.24
O      13.03      -0.12      15.51
O      14.06      -2.11      15.25
C      17.55       0.83      16.48
C      15.97       0.17      13.52
O      16.46       1.45      16.74
O      17.68      -0.40      16.19
O      15.32       1.03      14.28
O      16.31      -0.96      13.81
C      14.84      -1.06      18.38
