14

Zn       4.63       0.00      29.77
C       5.01      -2.52      31.36
C       7.61      -0.24      29.82
Zn       6.15       0.12      32.39
C       5.73       2.66      30.69
O       5.13       2.05      29.80
O       5.76      -1.87      32.19
O       4.46      -2.03      30.35
O       6.55      -0.27      29.18
O       7.74      -0.17      31.09
O       6.17       2.08      31.80
C       3.21       0.38      32.37
O       4.22       0.33      33.08
O       3.16       0.39      31.06
