19

C       1.77      18.62      10.96
Zn       1.23      18.55      13.63
O       2.42      18.22      12.03
Zn       1.30      18.37      17.33
O       1.93      18.54      15.48
O       0.62      20.24      17.76
O       0.45      16.62      17.83
C       1.18      21.43      14.26
C      -0.60      20.82      12.89
C       0.96      15.66      12.88
C      -0.76      16.46      14.23
H       2.68      19.17      15.61
C      -0.36      20.79      17.14
C       1.28      15.64      17.59
N       2.10      18.47      19.30
C       3.21      17.80      19.63
C       1.43      19.14      20.28
N       0.53      20.48      13.54
N       0.37      16.70      13.55
