28

Ba       6.75       6.73       8.72
Ba      10.96       5.41      10.09
P       8.67       5.08       6.41
P       4.82       9.10      10.30
P       8.59      10.29       7.52
P       9.05       7.06      12.40
P       9.15       1.83      11.18
P       4.82       8.08       5.17
P       4.57       2.88       8.37
P      13.30       3.45      13.36
O       7.21       5.49       6.18
O       9.24       5.42       7.85
O       4.27       7.65      10.00
O      11.45       2.83       8.92
O       5.02       7.89       6.88
O       4.85       9.39      12.02
O       8.73       3.37       6.12
O       6.27       9.31       9.89
O       8.41       8.55       7.51
O      10.51       6.65      12.63
O       8.47       6.72      10.96
O      12.69       4.25      11.93
O       8.97       8.76      12.76
O       5.09       4.49       8.81
O       9.30       3.59      11.30
C       8.12       5.99      13.62
C       9.66       6.01       5.13
C       3.92      10.36       9.28
