86

C      12.04      11.52      11.66
C      12.60      11.26      10.37
C      12.13      12.22       9.51
C      11.24      13.07      10.23
C      10.64      14.27       9.79
C       9.68      14.97      10.53
C       9.02      16.17      10.02
C       8.02      16.47      10.91
C       8.11      15.44      11.95
C       7.19      15.38      13.01
C       7.27      14.51      14.09
C       6.36      14.39      15.18
C       6.86      13.45      16.04
C       8.10      12.97      15.50
C       9.01      12.10      16.11
C      10.24      11.70      15.55
C      11.23      10.91      16.27
C      12.20      10.60      15.37
C      11.77      11.18      14.10
C      12.40      10.91      12.87
C      11.12      14.83       8.50
C      11.84      16.04       8.51
C      12.38      16.55       7.34
C      12.20      15.88       6.12
C      11.41      14.72       6.09
C      10.89      14.18       7.28
C      12.87      16.38       4.88
C       6.04      16.33      12.96
C       6.11      17.57      13.61
C       5.11      18.52      13.41
C       4.04      18.24      12.54
C       3.94      16.97      11.94
C       4.94      16.02      12.15
C       3.03      19.29      12.24
C       8.62      11.54      17.42
C       9.22      12.02      18.60
C       8.89      11.44      19.82
C       7.99      10.37      19.87
C       7.37       9.90      18.69
C       7.69      10.50      17.48
C       7.71       9.76      21.17
C      13.51       9.94      12.84
C      14.77      10.32      12.33
C      15.81       9.39      12.25
C      15.63       8.08      12.71
C      14.39       7.71      13.25
C      13.34       8.62      13.30
C      16.73       7.08      12.62
H      13.28      10.44      10.14
H      12.35      12.34       8.45
H       9.27      16.68       9.11
H       7.31      17.28      10.88
H       5.44      14.97      15.28
H       6.45      13.10      16.99
H      11.18      10.65      17.32
H      13.12      10.05      15.54
H      10.60      12.99      12.27
H       9.10      13.47      13.68
H      11.99      16.56       9.45
H      12.96      17.47       7.36
H      11.21      14.22       5.15
H      10.30      13.27       7.25
H       6.96      17.79      14.25
H       5.17      19.50      13.89
H       3.09      16.75      11.30
H       4.89      15.05      11.66
H       9.94      12.82      18.54
H       9.35      11.80      20.74
H       6.67       9.07      18.72
H       7.23      10.13      16.56
H      14.92      11.34      12.01
H      16.78       9.68      11.85
H      14.26       6.69      13.61
H      12.36       8.33      13.68
N      11.17      12.58      11.52
N       9.13      14.56      11.72
N       8.30      13.62      14.31
N      10.61      11.90      14.25
O      13.92      17.16       5.03
O      12.48      16.09       3.73
O       2.13      19.06      11.32
O       3.07      20.38      12.88
O       7.04       8.66      21.23
O       8.15      10.31      22.24
O      16.71       6.05      13.38
O      17.70       7.26      11.80
