1024

C       4.97       5.02       0.29
C       4.62       5.98       1.26
C       3.35       5.98       1.87
C       2.43       4.95       1.53
C       2.75       3.98       0.55
C       4.03       4.02      60.44
C       6.26       5.11      60.18
C       6.67       6.30      59.53
C       7.99       6.43      59.02
C       8.87       5.33      59.10
C       8.45       4.09      59.66
C       7.15       4.01      60.22
C       9.39       2.94      59.63
C       8.40       7.67      58.30
C       2.95       7.01       2.88
C       1.76       2.93       0.17
C      16.10      25.13      60.11
C      15.75      24.17      59.14
C      14.47      24.17      58.53
C      13.56      25.20      58.87
C      13.88      26.17      59.85
C      15.16      26.12      60.47
C      17.39      25.04       0.23
C      17.80      23.85       0.87
C      19.12      23.71       1.38
C      20.00      24.82       1.30
C      19.58      26.06       0.74
C      18.28      26.13       0.18
C      20.52      27.21       0.77
C      19.53      22.47       2.10
C      14.08      23.14      57.52
C      12.89      27.22      60.23
C      10.56      14.71      50.54
C      10.21      13.73      51.50
C       8.95      13.10      51.50
C       8.03      13.43      50.47
C       8.34      14.43      49.50
C       9.61      15.06      49.54
C      11.83      15.35      50.63
C      12.23      16.01      51.82
C      13.54      16.54      51.96
C      14.43      16.46      50.86
C      14.02      15.89      49.63
C      12.74      15.31      49.54
C      14.97      15.93      48.48
C      13.93      17.29      53.19
C       8.56      12.09      52.52
C       7.34      14.79      48.45
C      21.69      15.44       9.86
C      21.34      16.42       8.90
C      20.08      17.05       8.90
C      19.16      16.71       9.93
C      19.47      15.72      10.90
C      20.74      15.09      10.86
C       0.70      14.80       9.77
C       1.10      14.14       8.58
C       2.41      13.61       8.44
C       3.30      13.68       9.54
C       2.89      14.25      10.78
C       1.61      14.84      10.86
C       3.84      14.22      11.93
C       2.80      12.86       7.21
C      19.69      18.06       7.88
C      18.47      15.35      11.95
C      17.21      55.23      59.99
C      17.55      54.21      59.07
C      18.80      54.18      58.42
C      19.71      55.24      58.66
C      19.40      56.30      59.56
C      18.15      56.27      60.24
C      15.95      55.16       0.15
C      15.61      54.04       0.95
C      14.32      53.93       1.53
C      13.40      55.00       1.37
C      13.74      56.16       0.62
C      15.01      56.21      60.50
C      12.74      57.26       0.51
C      13.96      52.74       2.35
C      19.19      53.09      57.48
C      20.44      57.36      59.77
C       6.08      35.43       0.41
C       6.42      36.44       1.33
C       7.67      36.47       1.98
C       8.58      35.41       1.74
C       8.27      34.35       0.84
C       7.02      34.39       0.16
C       4.82      35.49      60.25
C       4.48      36.61      59.45
C       3.19      36.72      58.87
C       2.27      35.65      59.03
C       2.61      34.50      59.78
C       3.88      34.45      60.40
C       1.61      33.40      59.89
C       2.83      37.91      58.05
C       8.06      37.56       2.92
C       9.31      33.30       0.63
C      11.67      45.75       9.99
C      12.06      46.74       9.07
C      13.35      47.31       9.09
C      14.25      46.91      10.11
C      13.90      45.91      11.04
C      12.60      45.33      10.98
C      10.37      45.17       9.88
C       9.94      44.56       8.67
C       8.61      44.09       8.52
C       7.74      44.15       9.64
C       8.17      44.67      10.88
C       9.47      45.21      10.98
C       7.23      44.62      12.04
C       8.19      43.39       7.27
C      13.78      48.34       8.10
C      14.86      45.48      12.10
C       0.54      44.91      50.41
C       0.93      43.92      51.34
C       2.22      43.34      51.31
C       3.12      43.74      50.30
C       2.77      44.75      49.36
C       1.47      45.32      49.42
C      21.50      45.48      50.52
C      21.07      46.09      51.73
C      19.74      46.57      51.88
C      18.87      46.50      50.77
C      19.30      45.99      49.52
C      20.60      45.45      49.43
C      18.36      46.03      48.36
C      19.32      47.27      53.13
C       2.66      42.31      52.30
C       3.73      45.17      48.30
C      16.11      35.30      30.65
C      15.71      36.23      31.64
C      14.42      36.21      32.21
C      13.52      35.19      31.81
C      13.88      34.25      30.81
C      15.17      34.31      30.23
C      17.41      35.41      30.07
C      17.83      36.62      29.47
C      19.16      36.77      28.99
C      20.04      35.66      29.06
C      19.61      34.41      29.57
C      18.30      34.31      30.10
C      20.55      33.25      29.51
C      19.58      38.02      28.29
C      13.99      37.20      33.23
C      12.91      33.19      30.38
C       4.98      55.36      29.75
C       4.58      54.43      28.76
C       3.29      54.45      28.19
C       2.39      55.46      28.60
C       2.75      56.40      29.60
C       4.04      56.35      30.17
C       6.28      55.25      30.33
C       6.70      54.04      30.93
C       8.03      53.89      31.41
C       8.91      55.00      31.34
C       8.48      56.25      30.83
C       7.17      56.34      30.30
C       9.42      57.41      30.89
C       8.45      52.64      32.11
C       2.86      53.45      27.17
C       1.78      57.46      30.02
C      21.70      44.83      20.29
C      21.36      43.92      21.32
C      20.10      43.27      21.35
C      19.20      43.51      20.29
C      19.51      44.40      19.22
C      20.76      45.08      19.26
C       0.70      45.50      20.36
C       1.04      46.30      21.48
C       2.33      46.88      21.59
C       3.25      46.72      20.52
C       2.90      45.97      19.37
C       1.64      45.35      19.31
C       3.90      45.88      18.26
C       2.69      47.70      22.78
C      19.72      42.34      22.45
C      18.47      44.60      18.17
C      10.57      45.82      40.11
C      10.23      46.73      39.08
C       8.97      47.38      39.05
C       8.07      47.15      40.11
C       8.38      46.26      41.18
C       9.63      45.57      41.14
C      11.83      45.15      40.04
C      12.17      44.36      38.92
C      13.46      43.78      38.81
C      14.38      43.94      39.88
C      14.03      44.68      41.04
C      12.76      45.30      41.09
C      15.03      44.78      42.14
C      13.82      42.95      37.62
C       8.59      48.32      37.95
C       7.34      46.05      42.23
C       6.09      25.00      29.59
C       6.46      24.00      28.66
C       7.73      23.99      28.05
C       8.62      25.05      28.35
C       8.28      26.08      29.25
C       7.01      26.03      29.90
C       4.81      24.91      30.23
C       4.45      23.76      30.99
C       3.16      23.64      31.54
C       2.24      24.71      31.39
C       2.59      25.89      30.69
C       3.87      25.96      30.09
C       1.60      26.99      30.61
C       2.79      22.43      32.34
C       8.14      22.93      27.09
C       9.31      27.14      29.51
C      17.22       5.15      30.81
C      17.58       6.15      31.74
C      18.86       6.16      32.35
C      19.75       5.10      32.06
C      19.41       4.06      31.15
C      18.14       4.12      30.50
C      15.94       5.24      30.17
C      15.58       6.39      29.41
C      14.29       6.51      28.86
C      13.37       5.44      29.01
C      13.72       4.26      29.71
C      15.00       4.19      30.31
C      12.73       3.15      29.79
C      13.92       7.72      28.07
C      19.27       7.22      33.31
C      20.44       3.01      30.89
C       0.55      15.66      40.25
C       0.92      16.59      39.26
C       2.19      17.20      39.24
C       3.09      16.90      40.29
C       2.75      15.99      41.33
C       1.48      15.35      41.28
C      21.53      15.04      40.17
C      21.16      14.29      39.02
C      19.85      13.75      38.90
C      18.95      13.90      39.98
C      19.31      14.59      41.16
C      20.60      15.18      41.22
C      18.32      14.68      42.27
C      19.47      12.97      37.68
C       2.61      18.15      38.17
C       3.78      15.73      42.38
C      11.68      14.48      20.15
C      12.05      13.55      21.15
C      13.32      12.95      21.16
C      14.22      13.25      20.11
C      13.88      14.16      19.07
C      12.61      14.79      19.12
C      10.40      15.11      20.23
C      10.03      15.86      21.38
C       8.72      16.40      21.50
C       7.82      16.25      20.43
C       8.18      15.56      19.25
C       9.47      14.97      19.18
C       7.19      15.47      18.14
C       8.34      17.18      22.72
C      13.74      12.00      22.23
C      14.91      14.41      18.02
C      21.16      59.45       0.24
C      21.57      59.75       1.55
C       0.41       0.10       1.77
C       1.08       0.64       0.63
C       0.82       0.43       3.16
C      10.03      31.20      60.16
C      10.44      30.91      58.85
C      11.54      30.04      58.63
C      12.21      29.51      59.77
C      11.95      29.71      57.24
C       4.47      14.74      44.47
C       4.88      13.42      44.76
C       5.98      13.20      45.62
C       6.65      14.33      46.17
C       6.39      11.80      45.94
C      15.60      15.41      15.93
C      16.01      16.72      15.64
C      17.11      16.95      14.78
C      17.78      15.82      14.23
C      17.52      18.34      14.46
C       0.90      31.29       0.31
C       0.22      31.15       1.53
C      21.37      30.27       1.62
C      21.00      29.55       0.45
C      20.62      30.15       2.90
C      12.03      59.36      60.09
C      11.35      59.51      58.87
C      10.24      60.38      58.78
C       9.87       0.59      59.95
C       9.49      60.50      57.50
C      17.63      15.55      44.40
C      16.93      16.76      44.56
C      15.82      16.83      45.43
C      15.45      15.64      46.13
C      15.05      18.09      45.56
C       6.50      14.60      16.00
C       5.80      13.39      15.84
C       4.69      13.32      14.97
C       4.32      14.51      14.27
C       3.92      12.06      14.84
C      17.75      45.57      16.07
C      17.34      46.88      15.77
C      16.23      47.10      14.92
C      15.57      45.95      14.38
C      15.82      48.48      14.59
C       6.62      45.09      44.33
C       6.21      43.78      44.63
C       5.10      43.56      45.49
C       4.44      44.70      46.02
C       4.69      42.17      45.81
C       4.61      44.98      16.14
C       5.29      43.76      15.97
C       6.39      43.69      15.09
C       6.77      44.87      14.40
C       7.14      42.41      14.94
C      15.73      45.68      44.26
C      16.42      46.89      44.44
C      17.52      46.97      45.31
C      17.90      45.78      46.01
C      18.27      48.24      45.47
C      10.00      29.24      30.49
C      10.41      29.53      31.80
C      11.51      30.39      32.02
C      12.18      30.93      30.88
C      11.92      30.71      33.41
C      21.13       0.91      29.91
C      21.53       0.61      28.60
C       0.38      60.26      28.38
C       1.05      59.73      29.52
C       0.79      59.94      26.99
C      12.03       1.01      30.63
C      11.35       0.81      31.84
C      10.24      60.43      31.89
C       9.87      59.77      30.68
C       9.49      60.26      33.15
C       0.90      29.14      29.77
C       0.22      29.34      28.56
C      21.37      30.22      28.52
C      21.00      30.89      29.72
C      20.62      30.40      27.25
C       9.17      10.82      54.49
C      10.01       9.69      54.55
C       9.64       8.58      55.35
C       8.41       8.67      56.07
C      10.49       7.37      55.38
C      20.30      19.33       5.91
C      21.14      20.46       5.85
C      20.77      21.57       5.05
C      19.54      21.48       4.33
C      21.62      22.78       5.03
C      14.67      21.15      56.27
C      15.51      21.07      55.14
C      15.14      20.26      54.05
C      13.93      19.53      54.15
C      16.00      20.21      52.83
C       3.55       9.00       4.13
C       4.38       9.08       5.26
C       4.02       9.89       6.35
C       2.80      10.62       6.26
C       4.87       9.94       7.57
C      13.22      49.71       6.18
C      12.43      50.87       6.15
C      12.82      51.98       5.36
C      14.02      51.86       4.61
C      12.00      53.22       5.36
C       2.09      40.94      54.22
C       1.30      39.78      54.25
C       1.69      38.68      55.04
C       2.89      38.80      55.79
C       0.87      37.44      55.04
C       7.42      39.57       4.11
C       6.56      39.66       5.22
C       6.92      40.46       6.33
C       8.15      41.17       6.25
C       6.05      40.51       7.53
C      18.55      51.08      56.29
C      17.69      51.00      55.18
C      18.05      50.19      54.08
C      19.28      49.48      54.15
C      17.18      50.15      52.87
C      20.35      41.16      24.46
C      21.21      40.05      24.55
C      20.85      38.95      25.36
C      19.62      39.03      26.07
C      21.72      37.75      25.41
C       9.22      49.49      35.94
C      10.08      50.60      35.85
C       9.72      51.70      35.04
C       8.49      51.62      34.33
C      10.59      52.91      34.99
C       3.42      51.53      25.80
C       4.21      51.51      24.64
C       3.81      50.72      23.54
C       2.61      49.96      23.66
C       4.62      50.72      22.29
C      14.55      39.12      34.60
C      15.34      39.15      35.76
C      14.94      39.94      36.87
C      13.75      40.70      36.74
C      15.75      39.94      38.11
C       2.02      19.41      36.19
C       1.20      20.55      36.13
C       1.59      21.65      35.32
C       2.80      21.53      34.59
C       0.75      22.87      35.29
C      13.15      10.74      24.21
C      12.33       9.60      24.27
C      12.72       8.50      25.08
C      13.93       8.61      25.81
C      11.88       7.27      25.11
C      18.67       9.18      34.59
C      17.87       9.22      35.74
C      18.26      10.00      36.85
C      19.47      10.73      36.74
C      17.43      10.02      38.08
C       7.55      20.97      25.81
C       6.74      20.93      24.66
C       7.13      20.14      23.55
C       8.34      19.41      23.66
C       6.30      20.13      22.32
H       5.31       6.68       1.53
H       6.86       3.15       0.19
H       4.17       3.53      58.62
H       5.25       7.14      58.60
H       1.32       4.33       2.93
H      10.72       5.69      59.28
H      10.23       3.19      60.30
H       9.79       2.86      58.62
H       9.49       7.79      58.31
H       8.01       8.55      58.82
H       1.97       7.42       2.58
H       2.82       6.50       3.84
H       1.67       2.90      59.59
H       0.77       3.18       0.55
H      16.43      23.46      58.87
H      17.99      26.99      60.22
H      15.30      26.62       1.79
H      16.38      23.00       1.80
H      12.44      25.82      57.47
H      21.85      24.46       1.12
H      21.35      26.96       0.11
H      20.92      27.29       1.79
H      20.62      22.36       2.09
H      19.14      21.60       1.58
H      13.10      22.73      57.82
H      13.95      23.65      56.57
H      12.80      27.24       0.81
H      11.90      26.97      59.85
H      10.90      13.47      52.21
H      12.45      14.83      48.68
H       9.73      16.88      49.05
H      10.79      16.92      52.65
H       6.93      12.03      49.84
H      16.28      16.31      51.24
H      15.80      15.27      48.73
H      15.36      16.95      48.41
H      15.01      17.28      53.32
H      13.53      16.78      54.08
H       7.59      12.38      52.94
H       8.44      11.14      52.00
H       7.25      15.88      48.42
H       6.35      14.42      48.71
H      22.03      16.68       8.20
H       1.32      15.32      11.72
H      20.86      13.27      11.35
H      21.92      13.23       7.75
H      18.06      18.12      10.57
H       5.15      13.83       9.16
H       4.67      14.88      11.67
H       4.23      13.20      11.99
H       3.88      12.87       7.08
H       2.40      13.37       6.33
H      18.72      17.77       7.47
H      19.57      19.01       8.40
H      18.38      14.26      11.98
H      17.48      15.73      11.69
H      16.87      53.47      58.88
H      15.26      57.01      59.92
H      18.17      56.85       1.53
H      17.08      53.33       1.89
H      20.81      55.66      57.17
H      11.56      54.55       1.36
H      11.83      56.82       0.08
H      12.51      57.59       1.53
H      12.87      52.62       2.39
H      14.34      51.84       1.87
H      20.16      52.70      57.79
H      19.31      53.56      56.50
H      21.27      56.87      60.29
H      20.79      57.67      58.78
H       5.74      37.18       1.52
H       4.13      33.64       0.48
H       7.04      33.81      58.87
H       5.96      37.33      58.51
H       9.68      35.00       3.23
H       0.43      36.11      59.04
H       0.70      33.83      60.32
H       1.38      33.07      58.87
H       1.74      38.04      58.01
H       3.21      38.82      58.54
H       9.03      37.96       2.61
H       8.18      37.10       3.91
H      10.14      33.78       0.11
H       9.67      32.98       1.62
H      11.39      47.05       8.37
H       9.78      45.64      11.85
H      12.40      43.50      11.42
H      11.34      43.63       7.80
H      15.40      48.25      10.78
H       5.89      44.37       9.28
H       6.40      45.30      11.81
H       6.82      43.61      12.09
H       7.11      43.42       7.16
H       8.60      43.92       6.40
H      14.74      48.02       7.67
H      13.95      49.27       8.65
H      14.90      44.39      12.12
H      15.87      45.81      11.86
H       0.26      43.60      52.04
H      20.91      45.01      48.55
H       1.27      47.15      48.98
H       0.21      47.02      52.60
H       4.27      42.40      49.62
H      17.02      46.29      51.13
H      17.53      45.36      48.60
H      17.95      47.05      48.31
H      18.24      47.23      53.25
H      19.73      46.74      54.00
H       3.61      42.63      52.73
H       2.82      41.38      51.75
H       3.77      46.26      48.28
H       4.74      44.84      48.54
H      16.39      36.92      31.95
H      18.00      33.44      30.54
H      15.38      33.86      28.41
H      16.43      37.48      28.53
H      12.36      34.53      33.15
H      21.89      36.02      29.28
H      21.37      33.47      30.20
H      20.96      33.21      28.50
H      20.66      38.13      28.32
H      19.17      38.89      28.82
H      13.03      37.63      32.91
H      13.81      36.65      34.16
H      12.88      33.15      29.29
H      11.89      33.46      30.70
H       5.26      53.73      28.45
H       6.87      57.22      29.86
H       4.25      56.80      32.00
H       5.30      53.17      31.87
H       1.23      56.13      27.26
H      10.76      54.64      31.12
H      10.24      57.18      30.20
H       9.83      57.44      31.90
H       9.53      52.52      32.08
H       8.04      51.77      31.58
H       1.90      53.02      27.49
H       2.68      54.00      26.24
H       1.75      57.50      31.11
H       0.76      57.20      29.71
H      22.04      43.73      22.06
H       1.39      44.77      18.51
H      20.74      46.88      18.67
H      21.82      47.24      22.19
H      18.09      42.02      19.89
H       5.09      46.70      20.98
H       4.81      45.44      18.69
H       4.14      46.90      17.94
H       3.77      47.75      22.90
H       2.31      47.21      23.69
H      18.75      42.66      22.84
H      19.59      41.35      21.99
H      17.63      45.12      18.65
H      18.11      43.61      17.86
H      10.91      46.92      38.35
H      12.52      45.88      41.89
H       9.61      43.78      41.74
H      10.69      43.41      38.21
H       6.97      48.64      40.52
H      16.22      43.95      39.43
H      15.94      45.22      41.71
H      15.27      43.76      42.46
H      14.90      42.90      37.50
H      13.44      43.44      36.72
H       7.62      48.00      37.56
H       8.46      49.30      38.41
H       6.50      45.53      41.75
H       6.98      47.04      42.54
H       5.78      23.27      28.44
H       4.13      26.78      29.54
H       6.99      26.58      31.71
H       5.91      23.03      31.94
H       9.77      25.49      26.90
H       0.40      24.25      31.34
H       0.69      26.57      30.15
H       1.35      27.28      31.64
H       1.70      22.29      32.35
H       3.19      21.53      31.85
H       9.10      22.51      27.43
H       8.31      23.42      26.13
H      10.13      26.66      30.05
H       9.70      27.47      28.53
H      16.91       6.88      31.97
H      15.26       3.37      30.86
H      18.12       3.57      28.69
H      17.04       7.12      28.46
H      20.90       4.66      33.50
H      11.53       5.89      29.06
H      11.82       3.57      30.25
H      12.48       2.86      28.76
H      12.83       7.85      28.05
H      14.32       8.61      28.55
H      20.23       7.64      32.97
H      19.44       6.73      34.27
H      21.26       3.49      30.35
H      20.83       2.68      31.87
H       0.24      16.82      38.52
H      20.86      15.72      42.04
H       1.44      13.54      41.82
H       0.35      13.33      38.27
H       4.25      18.34      40.73
H      17.11      13.97      39.53
H      17.41      15.14      41.85
H      18.07      13.65      42.57
H      18.38      12.96      37.56
H      19.86      13.47      36.79
H       3.57      17.81      37.76
H       2.78      19.12      38.66
H       4.60      15.20      41.89
H       4.17      16.70      42.71
H      11.37      13.32      21.88
H       9.73      14.42      18.36
H      12.57      16.60      18.58
H      11.48      16.82      22.13
H      15.38      11.81      19.67
H       5.98      16.18      20.87
H       6.28      15.01      18.56
H       6.94      16.49      17.84
H       7.25      17.18      22.84
H       8.73      16.68      23.61
H      14.70      12.34      22.64
H      13.91      11.03      21.74
H      15.73      14.95      18.51
H      15.29      13.44      17.69
H      21.06      59.34       2.34
H       0.19      60.46       3.91
H       0.77       1.51       3.31
H       1.85       0.10       3.33
H      19.36      59.11      59.98
H       2.56       1.64       1.59
H       9.93      31.32      58.07
H      11.32      30.19      56.50
H      11.89      28.63      57.09
H      12.98      30.05      57.07
H       8.23      31.55       0.42
H      13.69      28.51      58.81
H       4.37      12.64      44.34
H       5.76      11.06      45.46
H       6.33      11.64      47.02
H       7.42      11.64      45.61
H       2.69      15.52      44.12
H       8.13      13.36      47.17
H      15.50      17.51      16.06
H      16.89      19.09      14.95
H      17.46      18.51      13.38
H      18.55      18.51      14.79
H      13.81      14.63      16.28
H      19.26      16.79      13.23
H       0.52      31.70       2.34
H      21.03      30.79       3.68
H      20.64      29.13       3.26
H      19.58      30.45       2.74
H       2.77      31.72      60.28
H      19.19      28.81       0.94
H      11.65      58.96      58.06
H       9.90      59.86      56.72
H       9.51       1.02      57.14
H       8.45      60.20      57.66
H      13.90      58.94       0.12
H       8.06       1.34      59.46
H      17.22      17.58      44.02
H      15.46      18.89      44.94
H      15.06      18.44      46.59
H      14.02      17.92      45.26
H      19.49      15.01      43.95
H      13.64      16.10      46.88
H       6.09      12.57      16.38
H       4.32      11.26      15.47
H       3.93      11.71      13.81
H       2.88      12.22      15.15
H       8.36      15.14      16.45
H       2.51      14.05      13.52
H      17.85      47.67      16.18
H      16.45      49.23      15.06
H      15.87      48.64      13.51
H      14.79      48.65      14.92
H      19.55      44.81      16.42
H      14.07      46.91      13.39
H       6.72      42.99      44.22
H       5.32      41.42      45.34
H       4.74      42.02      46.89
H       3.66      42.00      45.48
H       8.42      45.85      43.99
H       2.94      43.75      47.01
H       4.99      42.94      16.50
H       6.73      41.61      15.55
H       7.12      42.08      13.90
H       8.18      42.56      15.24
H       2.74      45.50      16.58
H       8.57      44.39      13.63
H      16.12      47.72      43.90
H      17.86      49.04      44.85
H      18.25      48.58      46.50
H      19.31      48.09      45.16
H      13.87      45.15      43.82
H      19.70      46.27      46.78
H       9.90      29.12      32.59
H      11.29      30.23      34.16
H      11.87      31.79      33.57
H      12.95      30.38      33.58
H       8.21      28.88      29.71
H      13.66      31.93      31.85
H      21.02       1.03      27.82
H       0.15      60.42      26.24
H       0.74      58.86      26.83
H       1.81      60.28      26.82
H      19.34       1.27      30.69
H       2.53      58.73      28.55
H      11.64       1.32      32.67
H       9.90       0.35      33.97
H       9.51      59.21      33.47
H       8.45       0.05      33.01
H      13.89       1.47      30.11
H       8.07      58.98      31.15
H       0.51      28.83      27.73
H      21.03      29.80      26.43
H      20.64      31.44      26.94
H      19.58      30.10      27.39
H       2.76      28.68      30.29
H      19.20      31.67      29.25
H      10.87       9.67      54.00
H      11.38       7.47      54.75
H       9.92       6.51      55.01
H      10.83       7.17      56.39
H       9.54      12.75      54.23
H       7.98       6.75      56.45
H      22.00      20.48       6.40
H       0.25      22.68       5.65
H      21.05      23.64       5.39
H      21.96      22.98       4.01
H      20.67      17.40       6.17
H      19.11      23.40       3.95
H      16.37      21.63      55.12
H      16.88      20.85      52.93
H      15.43      20.55      51.97
H      16.34      19.19      52.66
H      15.05      21.43      58.20
H      13.50      19.11      52.23
H       5.24       8.52       5.28
H       5.76       9.30       7.47
H       4.31       9.60       8.43
H       5.22      10.96       7.74
H       3.92       8.72       2.20
H       2.37      11.04       8.17
H      11.58      50.91       6.72
H      11.12      53.14       6.00
H      12.60      54.06       5.72
H      11.66      53.43       4.35
H      12.77      47.79       6.38
H      14.43      53.77       4.13
H       0.45      39.74      53.68
H      22.25      37.52      54.40
H       1.47      36.60      54.69
H       0.53      37.22      56.05
H       1.64      42.86      54.03
H       3.30      36.89      56.28
H       5.70      39.11       5.23
H       5.16      39.89       7.42
H       6.60      40.15       8.40
H       5.72      41.53       7.71
H       7.10      39.25       2.18
H       8.58      41.53       8.18
H      16.83      51.54      55.17
H      16.29      50.77      52.99
H      17.72      50.51      52.00
H      16.85      49.12      52.69
H      18.23      51.41      58.23
H      19.71      49.13      52.22
H      22.07      40.04      24.00
H       0.35      37.85      24.79
H      21.17      36.88      25.05
H      22.05      37.57      26.43
H      20.67      43.10      24.12
H      19.18      37.11      26.43
H      10.94      50.62      36.40
H      11.48      52.80      35.61
H      10.04      53.78      35.35
H      10.92      53.09      33.97
H       9.55      47.56      36.28
H       8.05      53.55      33.97
H       5.06      52.08      24.60
H       5.50      51.37      22.37
H       4.02      51.08      21.46
H       4.97      49.71      22.07
H       3.88      51.73      27.72
H       2.20      49.47      21.76
H      16.19      38.58      35.81
H      16.63      39.29      38.03
H      15.15      39.58      38.95
H      16.10      40.95      38.33
H      15.01      38.92      32.68
H      13.33      41.18      38.65
H       0.35      20.59      36.69
H      22.12      22.79      35.92
H       1.33      23.73      35.64
H       0.42      23.07      34.27
H       1.61      17.48      36.48
H       3.22      23.44      34.13
H      11.48       9.56      23.71
H      10.99       7.36      24.48
H      12.46       6.42      24.76
H      11.54       7.08      26.13
H      12.74      12.66      23.92
H      14.34       6.70      26.27
H      17.01       8.66      35.77
H      16.54       9.39      37.99
H      18.01       9.64      38.92
H      17.10      11.03      38.30
H      18.27       8.92      32.66
H      19.90      11.16      38.66
H       5.88      21.49      24.63
H       5.41      20.76      22.42
H       6.88      20.51      21.48
H       5.97      19.12      22.10
H       7.14      21.23      27.74
H       8.76      18.99      21.74
N       0.61       0.29      59.91
N      21.85      60.01      59.72
N      20.07      58.59       0.01
N       2.15       1.57       0.65
N      11.74      29.85       0.50
N      10.72      30.65       0.68
N       8.94      32.07      60.39
N      13.28      28.58      59.75
N       6.18      15.56      45.83
N       5.17      15.76      45.04
N       3.39      14.98      43.60
N       7.73      14.30      47.10
N      17.31      14.59      14.57
N      16.30      14.39      15.36
N      14.52      15.17      16.80
N      18.86      15.85      13.30
N      21.71      29.76      59.82
N       0.47      30.58      59.75
N       1.97      32.21       0.20
N      20.00      28.55       0.38
N      10.58       0.39       0.58
N      11.59      60.08       0.65
N      13.10      58.45      60.20
N       8.87       1.60      60.03
N      16.18      14.51      45.92
N      17.20      14.46      45.09
N      18.69      15.46      43.48
N      14.46      15.54      47.14
N       5.05      15.63      14.49
N       6.07      15.68      15.31
N       7.56      14.69      16.93
N       3.33      14.61      13.27
N      16.03      44.73      14.73
N      17.06      44.54      15.52
N      18.84      45.34      16.93
N      14.48      45.97      13.46
N       4.90      45.93      45.67
N       5.93      46.12      44.88
N       7.71      45.31      43.47
N       3.35      44.68      46.94
N       6.05      46.01      14.62
N       5.04      46.06      15.45
N       3.54      45.07      17.07
N       7.76      44.97      13.39
N      17.18      44.65      45.78
N      16.17      44.59      44.95
N      14.67      45.58      43.34
N      18.89      45.68      47.02
N      11.71      30.58      29.65
N      10.69      29.80      29.46
N       8.91      28.36      30.25
N      13.27      31.84      30.91
N       0.58      60.07      30.75
N      21.82       0.35      30.94
N      20.04       1.78      30.15
N       2.14      58.81      29.50
N      10.59      60.02      29.56
N      11.60       0.34      29.53
N      13.10       1.93      30.55
N       8.88      58.76      30.56
N      21.72      30.64      30.84
N       0.47      29.81      30.87
N       1.97      28.21      29.85
N      20.01      31.90      29.84
N       7.67       9.80      55.95
N       8.02      10.81      55.21
N       9.51      11.90      53.66
N       7.88       7.66      56.91
N      18.80      20.35       4.45
N      19.15      19.34       5.19
N      20.64      18.25       6.75
N      19.01      22.49       3.50
N      13.18      19.67      55.27
N      13.53      20.43      56.27
N      15.02      22.00      57.34
N      13.40      18.68      53.16
N       2.05      10.48       5.13
N       2.40       9.72       4.13
N       3.89       8.15       3.06
N       2.27      11.47       7.25
N      14.73      50.70       4.69
N      14.36      49.69       5.43
N      12.84      48.62       6.98
N      14.53      52.83       3.72
N       3.60      39.95      55.71
N       3.23      40.96      54.97
N       1.71      42.03      53.42
N       3.40      37.83      56.68
N       8.92      41.03       5.14
N       8.58      40.28       4.13
N       7.11      38.70       3.05
N       8.69      41.99       7.27
N      20.05      49.63      55.26
N      19.71      50.38      56.27
N      18.24      51.95      57.35
N      19.82      48.67      53.13
N      18.85      40.14      25.93
N      19.19      41.15      25.17
N      20.67      42.22      23.59
N      19.08      38.02      26.89
N       7.72      50.51      34.47
N       8.07      49.51      35.23
N       9.54      48.43      36.82
N       7.95      52.64      33.51
N       1.91      50.04      24.82
N       2.29      50.78      25.83
N       3.80      52.34      26.89
N       2.10      49.07      22.70
N      13.05      40.61      35.58
N      13.42      39.87      34.57
N      14.93      38.32      33.51
N      13.24      41.59      37.71
N       3.53      20.39      34.71
N       3.16      19.39      35.47
N       1.66      18.34      37.04
N       3.33      22.51      33.72
N      14.66       9.75      25.69
N      14.29      10.76      24.94
N      12.79      11.81      23.36
N      14.46       7.64      26.68
N      20.19      10.64      35.60
N      19.82       9.91      34.58
N      18.32       8.35      33.51
N      20.00      11.59      37.74
N       9.07      19.51      24.80
N       8.69      20.24      25.82
N       7.19      21.80      26.89
N       8.87      18.56      22.66
O       1.22       4.93       2.16
O      10.12       5.42      58.55
O       4.34       3.10      59.48
O       5.80       7.34      59.39
O      12.35      25.22      58.25
O      21.25      24.73       1.85
O      15.47      27.05       0.92
O      16.93      22.80       1.01
O       6.82      12.80      50.44
O      15.67      17.03      50.96
O       9.91      16.02      48.62
O      11.35      16.14      52.86
O      17.95      17.35       9.96
O       4.54      13.12       9.45
O      21.04      14.13      11.78
O       0.22      14.01       7.54
O      20.93      55.22      58.05
O      12.19      54.95       2.00
O      17.84      57.20       0.68
O      16.52      53.04       1.14
O       9.80      35.44       2.35
O       1.06      35.70      58.40
O       6.71      33.45      59.72
O       5.39      37.62      59.26
O      15.48      47.49      10.16
O       6.48      43.62       9.53
O      12.25      44.36      11.88
O      10.81      44.44       7.63
O       4.35      43.16      50.24
O      17.61      47.03      50.87
O       1.12      46.29      48.52
O      21.94      46.22      52.78
O      12.29      35.15      32.39
O      21.30      35.76      28.53
O      15.52      33.41      29.27
O      16.96      37.66      29.34
O       1.16      55.51      28.02
O      10.17      54.89      31.87
O       4.39      57.25      31.13
O       5.83      52.99      31.06
O      17.98      42.90      20.32
O       4.46      47.35      20.57
O      21.07      46.02      18.32
O       0.13      46.49      22.48
O       6.85      47.76      40.08
O      15.59      43.31      39.83
O       9.94      44.64      42.08
O      11.26      44.16      37.92
O       9.86      25.03      27.77
O       1.02      24.64      32.00
O       6.68      26.94      30.85
O       5.36      22.76      31.18
O      20.99       5.12      32.63
O      12.15       5.51      28.40
O      17.81       3.20      29.55
O      16.49       7.39      29.23
O       4.34      17.47      40.27
O      17.72      13.30      39.91
O       1.14      14.40      42.20
O      22.06      14.10      38.01
O      15.46      12.68      20.13
O       6.59      16.85      20.49
O      12.27      15.75      18.21
O      10.93      16.05      22.39
