34

H      11.08       1.39       1.24
H      12.92       0.06       4.93
H       8.24       4.70       7.05
H       5.47       1.43       6.38
N       8.79       2.12       2.26
N      10.82       0.43       6.49
N      10.17       3.81       5.55
N       7.04       0.00       4.82
C      13.45       0.54       2.31
C      12.14       0.67       3.00
C      11.03       1.17       2.31
C       9.87       1.45       3.01
C       9.74       1.23       4.39
C      10.86       0.68       5.04
C      12.05       0.43       4.37
C       8.65       1.86       5.18
C       8.88       3.12       5.77
C       7.97       3.74       6.61
O       9.14       2.87       1.34
O       7.62       1.88       2.59
C       7.39       1.30       5.42
O      11.91       0.41       7.09
O       9.71       0.24       7.02
C       6.43       1.92       6.22
O      10.59       3.90       4.38
O      10.73       4.27       6.56
O       7.98      -0.74       4.48
O       5.84      -0.24       4.68
C       5.72       3.76       7.74
O      13.49       0.44       1.02
O      14.51       0.60       2.99
O       6.12       4.62       8.61
O       4.50       3.44       7.66
C       6.73       3.14       6.84
