34

H       8.37       3.69      12.74
H       4.24       2.46      12.78
H       8.65      -3.43      14.08
H       7.70      -1.79      17.95
N       9.34       1.68      14.10
N       4.54       0.28      14.20
N       7.83      -1.45      12.61
N       6.87       0.55      17.13
C       7.76      -1.71      16.87
C       5.92       4.31      11.69
C       6.26       3.21      12.66
C       7.58       3.01      13.05
C       7.91       1.89      13.80
O       6.83       5.17      11.45
O       4.77       4.25      11.14
O       8.87      -4.20      17.94
O       9.42      -4.81      15.87
C       5.28       2.31      13.07
C       8.28      -2.62      14.70
C       5.63       1.20      13.83
C       8.26      -2.75      16.09
C       6.96       0.93      14.20
O      10.16       2.16      13.31
O       9.61       1.03      15.12
C       7.38      -0.35      14.85
C       7.83      -1.45      14.10
C       8.85      -3.99      16.67
C       7.34      -0.54      16.25
O       4.84      -0.86      14.59
O       3.38       0.71      14.10
O       7.63      -0.37      12.03
O       8.02      -2.53      12.04
O       6.77       1.69      16.62
O       6.61       0.27      18.30
