34

C       3.64      10.18      13.36
C       5.30       7.72      11.04
C       2.37       9.62      13.60
H      -0.06      10.09      17.54
H      -1.90      11.42      13.86
H       2.78       6.78      11.74
H       5.55      10.05      12.41
N       2.23       9.36      16.53
N       0.20      11.06      12.29
N       0.85       7.67      13.23
N       3.98      11.48      13.97
C      -1.03      11.06      14.41
O      -2.47      11.05      17.76
O      -3.49      10.88      15.79
O       4.90       6.86      10.17
O       6.52       8.05      11.12
O       1.88       8.61      17.45
O       3.40       9.61      16.19
O      -0.89      11.07      11.69
O       1.31      11.24      11.77
O       0.43       7.58      14.40
O       0.29       7.21      12.23
O       3.04      12.22      14.30
C      -2.43      10.94      16.47
O       5.19      11.73      14.10
C       1.15      10.03      15.78
C       1.28      10.25      14.39
C       0.16      10.80      13.75
C      -1.12      10.81      15.78
C      -0.01      10.32      16.48
C       2.14       8.37      13.01
C       3.06       7.74      12.18
C       4.29       8.35      11.95
C       4.59       9.57      12.57
