873

H      22.08      17.76      12.22
H      23.23      13.12      11.26
H      23.07      13.61      15.16
H      26.32      10.22      13.81
H      20.73      16.48      10.70
H      24.64       9.69      15.43
H      21.13      15.06       8.39
H      23.99      10.87      17.87
H       3.78      12.39       1.96
H       5.09      11.20       0.34
H       6.72      10.29      39.16
H       8.50       9.76      37.64
H      10.16      13.61      38.19
H       6.40      15.70       1.69
H       6.05      15.32      38.19
H       7.71      19.17      37.64
H       9.49      18.64      39.16
H       9.81      13.22       1.69
H      11.12      17.73       0.34
H      12.42      16.54       1.96
H      -8.42      19.25      15.43
H     -10.11      18.71      13.81
H      -6.86      15.32      15.15
H      -7.02      15.82      11.26
H      -4.52      12.45      10.70
H      -5.87      11.18      12.22
H       3.62      26.40      28.90
H       3.99      28.12      27.28
H      20.86       0.72      25.69
H      20.43       2.53      24.17
H      16.26       2.04      24.72
H      -0.56      27.00      28.62
H      -0.05      26.89      24.72
H      -4.22      26.40      24.17
H      -4.65      28.21      25.69
H      16.77       1.93      28.62
H      12.22       0.81      27.27
H      12.59       2.53      28.90
H      12.17       5.56      34.26
H      12.79       3.59      33.10
H      10.85      10.59      33.20
H      12.23       9.23      36.93
H      15.47       5.82      30.72
H      14.87       7.81      31.92
H      13.94       2.51      31.34
H       9.53      10.82      35.32
H      15.24      15.38       7.33
H      13.23      15.83       6.17
H      20.27      14.04       6.26
H      18.41      13.50       9.99
H      13.84      12.40       3.77
H      15.86      11.94       4.98
H      11.72      15.38       4.41
H      22.22       7.82      20.80
H      23.62       9.34      19.64
H      18.54       4.15      19.73
H      19.01       6.02      23.46
H      20.35      10.53      17.25
H      18.93       9.02      18.45
H      19.00       2.90      21.86
H       4.02      23.37      34.27
H       3.41      25.34      33.11
H       5.37      18.35      33.20
H       3.97      19.69      36.92
H       0.74      23.10      30.71
H       1.34      21.12      31.92
H       2.26      26.42      31.34
H       6.68      18.12      35.33
H       0.96      13.54       7.33
H       2.97      13.09       6.17
H      -4.06      14.90       6.26
H      -2.20      15.43       9.99
H       2.38      16.53       3.78
H       0.36      17.00       4.98
H       4.48      13.54       4.41
H      -4.92      13.88       8.39
H      -6.01      21.11      20.80
H      -7.41      19.59      19.64
H      -2.32      24.78      19.73
H      -2.80      22.91      23.46
H      -4.14      18.40      17.24
H      -2.72      19.91      18.45
H      -7.77      18.06      17.87
H      -2.79      26.04      21.86
H      22.08      17.76       1.22
H      23.23      13.12       0.26
H      23.07      13.61       4.16
H      26.32      10.22       2.81
H      20.73      16.48      40.10
H      24.64       9.69       4.43
H      21.13      15.06      37.79
H      23.99      10.87       6.87
H       3.78      12.39      31.36
H       5.09      11.20      29.74
H       6.72      10.29      28.16
H       8.50       9.76      26.64
H      10.16      13.61      27.19
H       6.40      15.70      31.09
H       6.05      15.32      27.19
H       7.71      19.17      26.64
H       9.49      18.64      28.16
H       9.81      13.22      31.09
H      11.12      17.73      29.74
H      12.42      16.54      31.36
H      -8.42      19.25       4.43
H     -10.11      18.71       2.81
H      -6.86      15.32       4.15
H      -7.02      15.82       0.26
H      -4.52      12.45      40.11
H      -5.87      11.18       1.22
H       3.62      26.40      17.90
H       3.99      28.12      16.28
H      20.86       0.72      14.69
H      20.43       2.53      13.17
H      16.26       2.04      13.72
H      -0.56      27.00      17.62
H      -0.05      26.89      13.72
H      -4.22      26.40      13.17
H      -4.65      28.21      14.69
H      16.77       1.93      17.62
H      12.22       0.81      16.27
H      12.59       2.53      17.90
H      12.17       5.56      23.26
H      12.79       3.59      22.10
H      10.85      10.59      22.20
H      12.23       9.23      25.93
H      15.47       5.82      19.72
H      14.87       7.81      20.92
H      13.94       2.51      20.34
H       9.53      10.82      24.32
H      15.24      15.38      36.73
H      13.23      15.83      35.58
H      20.27      14.04      35.66
H      18.41      13.50      39.39
H      13.84      12.40      33.17
H      15.86      11.94      34.38
H      11.72      15.38      33.81
H      22.22       7.82       9.80
H      23.62       9.34       8.64
H      18.54       4.15       8.73
H      19.01       6.02      12.46
H      20.35      10.53       6.25
H      18.93       9.02       7.45
H      19.00       2.90      10.86
H       4.02      23.37      23.27
H       3.41      25.34      22.11
H       5.37      18.35      22.20
H       3.97      19.69      25.92
H       0.74      23.10      19.71
H       1.34      21.12      20.92
H       2.26      26.42      20.34
H       6.68      18.12      24.33
H       0.96      13.54      36.73
H       2.97      13.09      35.57
H      -4.06      14.90      35.66
H      -2.20      15.43      39.39
H       2.38      16.53      33.18
H       0.36      17.00      34.38
H       4.48      13.54      33.81
H      -4.92      13.88      37.79
H      -6.01      21.11       9.80
H      -7.41      19.59       8.64
H      -2.32      24.78       8.73
H      -2.80      22.91      12.46
H      -4.14      18.40       6.24
H      -2.72      19.91       7.45
H      -7.77      18.06       6.87
H      -2.79      26.04      10.86
H      22.08      17.76      30.62
H      23.23      13.12      29.66
H      23.07      13.61      33.56
H      26.32      10.22      32.21
H      20.73      16.48      29.10
H      24.64       9.69      33.83
H      21.13      15.06      26.79
H      23.99      10.87      36.27
H       3.78      12.39      20.36
H       5.09      11.20      18.74
H       6.72      10.29      17.16
H       8.50       9.76      15.64
H      10.16      13.61      16.19
H       6.40      15.70      20.09
H       6.05      15.32      16.19
H       7.71      19.17      15.64
H       9.49      18.64      17.16
H       9.81      13.22      20.09
H      11.12      17.73      18.74
H      12.42      16.54      20.36
H      -8.42      19.25      33.83
H     -10.11      18.71      32.21
H      -6.86      15.32      33.55
H      -7.02      15.82      29.66
H      -4.52      12.45      29.11
H      -5.87      11.18      30.62
H       3.62      26.40       6.90
H       3.99      28.12       5.28
H      20.86       0.72       3.69
H      20.43       2.53       2.17
H      16.26       2.04       2.72
H      -0.56      27.00       6.62
H      -0.05      26.89       2.72
H      -4.22      26.40       2.17
H      -4.65      28.21       3.69
H      16.77       1.93       6.62
H      12.22       0.81       5.27
H      12.59       2.53       6.90
H      12.17       5.56      12.26
H      12.79       3.59      11.10
H      10.85      10.59      11.20
H      12.23       9.23      14.93
H      15.47       5.82       8.72
H      14.87       7.81       9.92
H      13.94       2.51       9.34
H       9.53      10.82      13.32
H      15.24      15.38      25.73
H      13.23      15.83      24.58
H      20.27      14.04      24.66
H      18.41      13.50      28.39
H      13.84      12.40      22.17
H      15.86      11.94      23.38
H      11.72      15.38      22.81
H      22.22       7.82      39.20
H      23.62       9.34      38.04
H      18.54       4.15      38.13
H      19.01       6.02       1.46
H      20.35      10.53      35.65
H      18.93       9.02      36.85
H      19.00       2.90      40.26
H       4.02      23.37      12.27
H       3.41      25.34      11.11
H       5.37      18.35      11.20
H       3.97      19.69      14.92
H       0.74      23.10       8.71
H       1.34      21.12       9.92
H       2.26      26.42       9.34
H       6.68      18.12      13.33
H       0.96      13.54      25.73
H       2.97      13.09      24.57
H      -4.06      14.90      24.66
H      -2.20      15.43      28.39
H       2.38      16.53      22.18
H       0.36      17.00      23.38
H       4.48      13.54      22.81
H      -4.92      13.88      26.79
H      -6.01      21.11      39.20
H      -7.41      19.59      38.04
H      -2.32      24.78      38.13
H      -2.80      22.91       1.46
H      -4.14      18.40      35.64
H      -2.72      19.91      36.85
H      -7.77      18.06      36.27
H      -2.79      26.04      40.26
C      24.76      13.22      13.93
C      25.68      12.24      13.55
C      25.65      10.94      14.10
C      24.67      10.64      15.05
C      23.76      12.90      14.89
C      23.45      16.18      12.60
C      23.81      14.86      12.32
C      22.34      16.80      11.99
C      21.56      16.05      11.10
C      23.01      14.10      11.43
C      25.00      14.47      13.14
C      23.73      11.61      15.47
C      21.89      14.70      10.80
C       9.30      14.88       0.47
C       9.69      16.17       0.09
C       8.82      16.66      39.53
C       7.85      15.69      39.26
C       6.80      16.00      38.36
C       6.75      17.27      37.74
C       7.75      18.23      38.04
C       8.80      17.93      38.93
C      10.83      16.79       0.64
C      11.59      16.09       1.58
C      11.21      14.79       2.00
C      10.07      14.17       1.42
C       6.91      14.05       0.47
C       6.52      12.75       0.09
C       7.39      12.27      39.53
C       8.36      13.24      39.25
C       7.42      11.00      38.93
C       8.46      10.70      38.04
C       9.46      11.65      37.74
C       9.41      12.93      38.36
C       6.14      14.75       1.42
C       5.00      14.13       2.01
C       4.62      12.83       1.58
C       5.38      12.13       0.64
C       8.10      14.46      40.07
C      -7.25      12.75      12.60
C      -7.60      14.07      12.32
C      -6.80      14.83      11.43
C      -5.68      14.23      10.80
C      -5.35      12.89      11.10
C      -6.14      12.14      11.99
C      -8.55      15.71      13.93
C      -9.47      16.70      13.56
C      -7.55      16.03      14.89
C      -7.52      17.32      15.47
C      -8.46      18.30      15.05
C      -9.44      17.99      14.10
C      15.59       0.66      27.40
C      14.28       0.36      27.02
C      -2.60      28.62      26.06
C      -1.27      28.26      25.79
C      -1.02      27.19      24.89
C      -2.10      26.52      24.27
C      -3.42      26.91      24.57
C      -3.69      27.96      25.46
C      13.17       1.03      27.57
C      13.40       2.03      28.52
C      14.71       2.36      28.94
C      15.81       1.68      28.36
C       0.62      28.27      27.40
C       1.93      28.57      27.02
C      18.81       0.32      26.07
C      17.48       0.67      25.79
C      19.89       0.97      25.46
C      19.63       2.02      24.57
C      18.31       2.41      24.27
C      17.23       1.74      24.89
C       0.39      27.25      28.36
C       1.50      26.57      28.94
C       2.81      26.90      28.52
C       3.04      27.90      27.57
C      -0.34      29.09      26.61
C      14.22       4.49      31.80
C      14.81       5.74      31.49
C      14.45       6.91      32.20
C      13.49       6.88      33.23
C      12.91       5.63      33.56
C      13.28       4.46      32.86
C      12.98       8.06      33.86
C      12.21       8.99      33.09
C      11.46       9.99      33.76
C      11.44      10.10      35.16
C      12.26       9.21      35.90
C      13.02       8.20      35.27
C      10.42      10.83      35.78
C      14.38       3.35      31.02
C      13.30      14.15       4.87
C      14.09      13.01       4.55
C      15.29      12.74       5.26
C      15.73      13.59       6.30
C      14.93      14.71       6.62
C      13.74      14.97       5.93
C      17.02      13.45       6.92
C      18.20      13.65       6.16
C      19.44      13.80       6.82
C      19.55      13.76       8.23
C      18.38      13.49       8.96
C      17.12      13.34       8.33
C      20.68      14.28       8.84
C      12.23      14.58       4.09
C      22.13      10.12      18.34
C      20.75      10.00      18.02
C      19.91       9.11      18.73
C      20.43       8.29      19.76
C      21.80       8.42      20.09
C      22.63       9.32      19.40
C      19.66       7.26      20.39
C      19.24       6.13      19.63
C      18.75       4.98      20.29
C      18.66       4.91      21.70
C      19.02       6.06      22.43
C      19.52       7.22      21.80
C      18.55       3.66      22.31
C      23.04      10.83      17.56
C       1.98      24.44      31.80
C       1.40      23.19      31.49
C       1.75      22.01      32.20
C       2.72      22.05      33.23
C       3.29      23.31      33.56
C       2.92      24.47      32.87
C       3.23      20.87      33.86
C       4.00      19.95      33.09
C       4.75      18.94      33.75
C       4.77      18.83      35.16
C       3.95      19.71      35.90
C       3.19      20.73      35.27
C       5.79      18.11      35.78
C       1.82      25.59      31.03
C       2.90      14.78       4.87
C       2.12      15.91       4.56
C       0.92      16.19       5.26
C       0.47      15.33       6.30
C       1.27      14.21       6.62
C       2.46      13.95       5.93
C      -0.81      15.48       6.92
C      -1.99      15.28       6.16
C      -3.24      15.14       6.82
C      -3.34      15.17       8.23
C      -2.17      15.44       8.97
C      -0.91      15.59       8.34
C      -4.48      14.65       8.84
C       3.98      14.34       4.09
C      -5.91      18.81      18.33
C      -4.54      18.93      18.02
C      -3.70      19.82      18.73
C      -4.22      20.64      19.76
C      -5.59      20.51      20.09
C      -6.41      19.61      19.40
C      -3.45      21.67      20.39
C      -3.03      22.80      19.62
C      -2.54      23.95      20.29
C      -2.45      24.03      21.69
C      -2.81      22.88      22.43
C      -3.31      21.71      21.80
C      -2.33      25.27      22.31
C      -6.83      18.10      17.55
C      24.76      13.22       2.93
C      25.68      12.24       2.55
C      25.65      10.94       3.10
C      24.67      10.64       4.05
C      23.76      12.90       3.89
C      23.45      16.18       1.60
C      23.81      14.86       1.32
C      22.34      16.80       0.99
C      21.56      16.05       0.10
C      23.01      14.10       0.43
C      25.00      14.47       2.14
C      23.73      11.61       4.47
C      21.89      14.70      40.20
C       9.30      14.88      29.87
C       9.69      16.17      29.49
C       8.82      16.66      28.53
C       7.85      15.69      28.26
C       6.80      16.00      27.36
C       6.75      17.27      26.74
C       7.75      18.23      27.04
C       8.80      17.93      27.93
C      10.83      16.79      30.04
C      11.59      16.09      30.98
C      11.21      14.79      31.40
C      10.07      14.17      30.82
C       6.91      14.05      29.87
C       6.52      12.75      29.49
C       7.39      12.27      28.53
C       8.36      13.24      28.25
C       7.42      11.00      27.93
C       8.46      10.70      27.04
C       9.46      11.65      26.74
C       9.41      12.93      27.36
C       6.14      14.75      30.82
C       5.00      14.13      31.41
C       4.62      12.83      30.98
C       5.38      12.13      30.04
C       8.10      14.46      29.07
C      -7.25      12.75       1.60
C      -7.60      14.07       1.32
C      -6.80      14.83       0.43
C      -5.68      14.23      40.20
C      -5.35      12.89       0.10
C      -6.14      12.14       0.99
C      -8.55      15.71       2.93
C      -9.47      16.70       2.56
C      -7.55      16.03       3.89
C      -7.52      17.32       4.47
C      -8.46      18.30       4.05
C      -9.44      17.99       3.10
C      15.59       0.66      16.40
C      14.28       0.36      16.02
C      -2.60      28.62      15.06
C      -1.27      28.26      14.79
C      -1.02      27.19      13.89
C      -2.10      26.52      13.27
C      -3.42      26.91      13.57
C      -3.69      27.96      14.46
C      13.17       1.03      16.57
C      13.40       2.03      17.52
C      14.71       2.36      17.94
C      15.81       1.68      17.36
C       0.62      28.27      16.40
C       1.93      28.57      16.02
C      18.81       0.32      15.07
C      17.48       0.67      14.79
C      19.89       0.97      14.46
C      19.63       2.02      13.57
C      18.31       2.41      13.27
C      17.23       1.74      13.89
C       0.39      27.25      17.36
C       1.50      26.57      17.94
C       2.81      26.90      17.52
C       3.04      27.90      16.57
C      -0.34      29.09      15.61
C      14.22       4.49      20.80
C      14.81       5.74      20.49
C      14.45       6.91      21.20
C      13.49       6.88      22.23
C      12.91       5.63      22.56
C      13.28       4.46      21.86
C      12.98       8.06      22.86
C      12.21       8.99      22.09
C      11.46       9.99      22.76
C      11.44      10.10      24.16
C      12.26       9.21      24.90
C      13.02       8.20      24.27
C      10.42      10.83      24.78
C      14.38       3.35      20.02
C      13.30      14.15      34.27
C      14.09      13.01      33.95
C      15.29      12.74      34.66
C      15.73      13.59      35.70
C      14.93      14.71      36.02
C      13.74      14.97      35.33
C      17.02      13.45      36.32
C      18.20      13.65      35.56
C      19.44      13.80      36.22
C      19.55      13.76      37.63
C      18.38      13.49      38.36
C      17.12      13.34      37.73
C      20.68      14.28      38.24
C      12.23      14.58      33.49
C      22.13      10.12       7.34
C      20.75      10.00       7.02
C      19.91       9.11       7.73
C      20.43       8.29       8.76
C      21.80       8.42       9.09
C      22.63       9.32       8.40
C      19.66       7.26       9.39
C      19.24       6.13       8.63
C      18.75       4.98       9.29
C      18.66       4.91      10.70
C      19.02       6.06      11.43
C      19.52       7.22      10.80
C      18.55       3.66      11.31
C      23.04      10.83       6.56
C       1.98      24.44      20.80
C       1.40      23.19      20.49
C       1.75      22.01      21.20
C       2.72      22.05      22.23
C       3.29      23.31      22.56
C       2.92      24.47      21.87
C       3.23      20.87      22.85
C       4.00      19.95      22.09
C       4.75      18.94      22.75
C       4.77      18.83      24.16
C       3.95      19.71      24.90
C       3.19      20.73      24.27
C       5.79      18.11      24.78
C       1.82      25.59      20.03
C       2.90      14.78      34.27
C       2.12      15.91      33.96
C       0.92      16.19      34.66
C       0.47      15.33      35.70
C       1.27      14.21      36.02
C       2.46      13.95      35.33
C      -0.81      15.48      36.32
C      -1.99      15.28      35.56
C      -3.24      15.14      36.22
C      -3.34      15.17      37.63
C      -2.17      15.44      38.37
C      -0.91      15.59      37.74
C      -4.48      14.65      38.24
C       3.98      14.34      33.49
C      -5.91      18.81       7.33
C      -4.54      18.93       7.02
C      -3.70      19.82       7.73
C      -4.22      20.64       8.76
C      -5.59      20.51       9.09
C      -6.41      19.61       8.40
C      -3.45      21.67       9.39
C      -3.03      22.80       8.62
C      -2.54      23.95       9.29
C      -2.45      24.03      10.69
C      -2.81      22.88      11.43
C      -3.31      21.71      10.80
C      -2.33      25.27      11.31
C      -6.83      18.10       6.55
C      24.76      13.22      32.33
C      25.68      12.24      31.95
C      25.65      10.94      32.50
C      24.67      10.64      33.45
C      23.76      12.90      33.29
C      23.45      16.18      31.00
C      23.81      14.86      30.72
C      22.34      16.80      30.39
C      21.56      16.05      29.50
C      23.01      14.10      29.83
C      25.00      14.47      31.54
C      23.73      11.61      33.87
C      21.89      14.70      29.20
C       9.30      14.88      18.87
C       9.69      16.17      18.49
C       8.82      16.66      17.53
C       7.85      15.69      17.26
C       6.80      16.00      16.36
C       6.75      17.27      15.74
C       7.75      18.23      16.04
C       8.80      17.93      16.93
C      10.83      16.79      19.04
C      11.59      16.09      19.98
C      11.21      14.79      20.40
C      10.07      14.17      19.82
C       6.91      14.05      18.87
C       6.52      12.75      18.49
C       7.39      12.27      17.53
C       8.36      13.24      17.25
C       7.42      11.00      16.93
C       8.46      10.70      16.04
C       9.46      11.65      15.74
C       9.41      12.93      16.36
C       6.14      14.75      19.82
C       5.00      14.13      20.41
C       4.62      12.83      19.98
C       5.38      12.13      19.04
C       8.10      14.46      18.07
C      -7.25      12.75      31.00
C      -7.60      14.07      30.72
C      -6.80      14.83      29.83
C      -5.68      14.23      29.20
C      -5.35      12.89      29.50
C      -6.14      12.14      30.39
C      -8.55      15.71      32.33
C      -9.47      16.70      31.96
C      -7.55      16.03      33.29
C      -7.52      17.32      33.87
C      -8.46      18.30      33.45
C      -9.44      17.99      32.50
C      15.59       0.66       5.40
C      14.28       0.36       5.02
C      -2.60      28.62       4.06
C      -1.27      28.26       3.79
C      -1.02      27.19       2.89
C      -2.10      26.52       2.27
C      -3.42      26.91       2.57
C      -3.69      27.96       3.46
C      13.17       1.03       5.57
C      13.40       2.03       6.52
C      14.71       2.36       6.94
C      15.81       1.68       6.36
C       0.62      28.27       5.40
C       1.93      28.57       5.02
C      18.81       0.32       4.07
C      17.48       0.67       3.79
C      19.89       0.97       3.46
C      19.63       2.02       2.57
C      18.31       2.41       2.27
C      17.23       1.74       2.89
C       0.39      27.25       6.36
C       1.50      26.57       6.94
C       2.81      26.90       6.52
C       3.04      27.90       5.57
C      -0.34      29.09       4.61
C      14.22       4.49       9.80
C      14.81       5.74       9.49
C      14.45       6.91      10.20
C      13.49       6.88      11.23
C      12.91       5.63      11.56
C      13.28       4.46      10.86
C      12.98       8.06      11.86
C      12.21       8.99      11.09
C      11.46       9.99      11.76
C      11.44      10.10      13.16
C      12.26       9.21      13.90
C      13.02       8.20      13.27
C      10.42      10.83      13.78
C      14.38       3.35       9.02
C      13.30      14.15      23.27
C      14.09      13.01      22.95
C      15.29      12.74      23.66
C      15.73      13.59      24.70
C      14.93      14.71      25.02
C      13.74      14.97      24.33
C      17.02      13.45      25.32
C      18.20      13.65      24.56
C      19.44      13.80      25.22
C      19.55      13.76      26.63
C      18.38      13.49      27.36
C      17.12      13.34      26.73
C      20.68      14.28      27.24
C      12.23      14.58      22.49
C      22.13      10.12      36.74
C      20.75      10.00      36.42
C      19.91       9.11      37.13
C      20.43       8.29      38.16
C      21.80       8.42      38.49
C      22.63       9.32      37.80
C      19.66       7.26      38.79
C      19.24       6.13      38.03
C      18.75       4.98      38.69
C      18.66       4.91      40.10
C      19.02       6.06       0.43
C      19.52       7.22      40.20
C      18.55       3.66       0.31
C      23.04      10.83      35.96
C       1.98      24.44       9.80
C       1.40      23.19       9.49
C       1.75      22.01      10.20
C       2.72      22.05      11.23
C       3.29      23.31      11.56
C       2.92      24.47      10.87
C       3.23      20.87      11.85
C       4.00      19.95      11.09
C       4.75      18.94      11.75
C       4.77      18.83      13.16
C       3.95      19.71      13.90
C       3.19      20.73      13.27
C       5.79      18.11      13.78
C       1.82      25.59       9.03
C       2.90      14.78      23.27
C       2.12      15.91      22.96
C       0.92      16.19      23.66
C       0.47      15.33      24.70
C       1.27      14.21      25.02
C       2.46      13.95      24.33
C      -0.81      15.48      25.32
C      -1.99      15.28      24.56
C      -3.24      15.14      25.22
C      -3.34      15.17      26.63
C      -2.17      15.44      27.37
C      -0.91      15.59      26.74
C      -4.48      14.65      27.24
C       3.98      14.34      22.49
C      -5.91      18.81      36.73
C      -4.54      18.93      36.42
C      -3.70      19.82      37.13
C      -4.22      20.64      38.16
C      -5.59      20.51      38.49
C      -6.41      19.61      37.80
C      -3.45      21.67      38.79
C      -3.03      22.80      38.02
C      -2.54      23.95      38.69
C      -2.45      24.03      40.09
C      -2.81      22.88       0.43
C      -3.31      21.71      40.20
C      -2.33      25.27       0.31
C      -6.83      18.10      35.95
N      10.49      11.25      36.99
N      12.02      14.19       2.88
N       5.72      17.69      36.99
N       4.19      14.74       2.88
N      21.02      14.01      10.06
N      22.80      11.21      16.35
N      -4.81      14.92      10.06
N      -6.59      17.72      16.34
N      18.15       3.51      23.53
N      14.83       3.36      29.81
N      -1.94      25.42      23.53
N       1.38      25.57      29.81
N      13.78       7.28      36.04
N      12.12       8.84      31.69
N      15.94      13.13       9.10
N      18.12      13.81       4.75
N      19.93       8.34      22.57
N      19.42       6.13      18.22
N       2.42      21.64      36.04
N       4.09      20.10      31.69
N       0.27      15.79       9.11
N      -1.91      15.13       4.75
N      -3.72      20.59      22.57
N      -3.20      22.80      18.22
N      10.49      11.25      25.99
N      12.02      14.19      32.28
N       5.72      17.69      25.99
N       4.19      14.74      32.28
N      21.02      14.01      39.46
N      22.80      11.21       5.35
N      -4.81      14.92      39.46
N      -6.59      17.72       5.34
N      18.15       3.51      12.53
N      14.83       3.36      18.81
N      -1.94      25.42      12.53
N       1.38      25.57      18.81
N      13.78       7.28      25.04
N      12.12       8.84      20.69
N      15.94      13.13      38.50
N      18.12      13.81      34.15
N      19.93       8.34      11.57
N      19.42       6.13       7.22
N       2.42      21.64      25.04
N       4.09      20.10      20.69
N       0.27      15.79      38.51
N      -1.91      15.13      34.15
N      -3.72      20.59      11.57
N      -3.20      22.80       7.22
N      10.49      11.25      14.99
N      12.02      14.19      21.28
N       5.72      17.69      14.99
N       4.19      14.74      21.28
N      21.02      14.01      28.46
N      22.80      11.21      34.75
N      -4.81      14.92      28.46
N      -6.59      17.72      34.74
N      18.15       3.51       1.53
N      14.83       3.36       7.81
N      -1.94      25.42       1.53
N       1.38      25.57       7.81
N      13.78       7.28      14.04
N      12.12       8.84       9.69
N      15.94      13.13      27.50
N      18.12      13.81      23.15
N      19.93       8.34       0.57
N      19.42       6.13      36.62
N       2.42      21.64      14.04
N       4.09      20.10       9.69
N       0.27      15.79      27.51
N      -1.91      15.13      23.15
N      -3.72      20.59       0.57
N      -3.20      22.80      36.62
O      12.53       9.87      31.09
O      14.67       7.87      36.70
O      13.05       6.63      36.84
O      10.95       8.60      31.32
O      18.80      12.94       4.15
O      16.01      12.06       9.76
O      15.74      14.08       9.90
O      18.49      14.95       4.38
O      18.32       5.97      17.62
O      18.97       8.82      23.23
O      20.86       8.04      23.37
O      20.22       5.23      17.85
O       3.68      19.07      31.09
O       1.53      21.05      36.70
O       3.14      22.30      36.84
O       5.27      20.34      31.32
O      -2.59      16.00       4.15
O       0.20      16.86       9.77
O       0.47      14.84       9.90
O      -2.29      13.99       4.38
O      -2.11      22.96      17.62
O      -2.76      20.11      23.23
O      -4.65      20.89      23.37
O      -4.00      23.70      17.85
O      12.53       9.87      20.09
O      14.67       7.87      25.70
O      13.05       6.63      25.84
O      10.95       8.60      20.31
O      18.80      12.94      33.55
O      16.01      12.06      39.16
O      15.74      14.08      39.30
O      18.49      14.95      33.78
O      18.32       5.97       6.62
O      18.97       8.82      12.23
O      20.86       8.04      12.37
O      20.22       5.23       6.85
O       3.68      19.07      20.09
O       1.53      21.05      25.70
O       3.14      22.30      25.84
O       5.27      20.34      20.32
O      -2.59      16.00      33.55
O       0.20      16.86      39.17
O       0.47      14.84      39.30
O      -2.29      13.99      33.78
O      -2.11      22.96       6.62
O      -2.76      20.11      12.23
O      -4.65      20.89      12.37
O      -4.00      23.70       6.85
O      12.53       9.87       9.09
O      14.67       7.87      14.70
O      13.05       6.63      14.84
O      10.95       8.60       9.31
O      18.80      12.94      22.55
O      16.01      12.06      28.16
O      15.74      14.08      28.30
O      18.49      14.95      22.78
O      18.32       5.97      36.02
O      18.97       8.82       1.23
O      20.86       8.04       1.37
O      20.22       5.23      36.25
O       3.68      19.07       9.09
O       1.53      21.05      14.70
O       3.14      22.30      14.84
O       5.27      20.34       9.32
O      -2.59      16.00      22.55
O       0.20      16.86      28.17
O       0.47      14.84      28.30
O      -2.29      13.99      22.78
O      -2.11      22.96      36.02
O      -2.76      20.11       1.23
O      -4.65      20.89       1.37
O      -4.00      23.70      36.25
