13

H       8.63       0.46       1.14
H       6.91       2.11       5.61
H       6.23       3.20       3.47
H       7.08       2.41       1.30
C       8.61       0.17       3.31
C       8.25       0.80       2.10
N       9.41      -1.08       4.92
N       9.40      -0.92       3.58
C       7.27       1.76       4.65
N       8.68      -0.15       5.52
C       7.39       1.89       2.20
C       6.90       2.35       3.45
C       8.14       0.66       4.56
