13

O       1.52      24.44      26.95
O       0.12      25.22      28.33
O      -0.05      25.90      24.90
C      -0.26      25.15      23.89
Sm      -0.67      24.36      26.39
O      -0.68      23.98      24.18
C       0.15      21.86      26.99
C       1.34      24.99      28.08
O       0.86      22.69      26.34
O      -0.98      22.32      27.33
C       2.46      25.28      29.03
C       0.66      20.50      27.38
C      -0.04      25.60      22.50
