13

Sm      21.17       4.20      30.98
O      21.54       4.85      33.11
O      23.21       4.13      30.06
O      22.15       2.91      32.55
O      21.57       3.22      29.00
O      20.53       2.09      31.47
O      19.06       3.60      31.52
C      22.54       3.47      34.88
C      18.30       1.34      32.06
C      22.81       3.50      29.02
C      19.32       2.37      31.68
C      22.07       3.76      33.48
C      23.75       3.12      27.92
