13

C      27.08       5.42      26.65
Sm      27.09       8.44      23.84
O      27.45       8.39      21.64
O      25.65       7.49      22.44
O      27.75       6.44      24.55
O      26.55       7.67      25.86
O      28.46       9.98      24.68
O      26.61      10.61      23.77
C      25.95       7.35      20.06
C      27.69      10.96      24.36
C      27.15       6.55      25.67
C      28.04      12.37      24.63
C      26.36       7.76      21.41
