13

Sm       6.59      26.51       1.16
C       5.04      30.26       0.21
C       9.20      26.50       1.74
C       5.03      26.86       3.33
C       5.59      28.93       0.53
O       6.42      28.74       1.46
O       5.27      27.87      -0.08
O       8.71      27.14       0.74
O       8.34      25.82       2.39
O       6.06      27.55       3.09
O       4.81      25.98       2.45
C      10.62      26.57       2.13
C       4.12      27.11       4.50
