276

Co       8.48      12.71       0.00
Co       8.48       4.23      16.95
Co       0.00       8.47       4.24
Co       0.01       8.47      12.71
Co       4.24      16.94       8.47
Co      12.71      -0.00       8.47
Co       4.24       8.47      16.95
Co      12.72       8.46      16.95
Co       8.48       0.00       4.24
Co       8.48      16.94      12.71
Co       0.01      12.71       8.48
Co       0.00       4.23       8.47
H       9.05       9.82      15.48
H       7.91       7.11      15.49
H       7.90       9.83       1.47
H      15.49       7.90       7.12
H       1.47       9.04       7.12
H       1.47       7.90       9.83
H       7.12       1.46       9.05
H       7.12      15.48       7.90
H       9.84       7.90       1.46
H       9.05       1.46       7.12
H       9.05      15.48       9.83
H      15.49       9.83       9.04
H       0.57       1.36       7.01
H       0.58      15.58       9.94
H       7.02      16.37      15.59
H       7.01       0.57       1.36
H       1.36       9.93      16.38
H      15.59      16.37       7.01
H      15.59       0.56       9.94
H      16.38       9.94       1.36
H       0.57       7.00       1.36
H       9.94       1.35      16.38
H       9.94      15.59       0.57
H      10.70       9.24      15.13
H       6.26       7.69      15.14
H       6.26       9.25       1.81
H      15.14       6.25       7.70
H       1.82      10.69       7.70
H       1.82       6.25       9.25
H       7.70       1.81      10.69
H       7.70      15.13       6.26
H       9.25       6.26       1.81
H      10.69       1.81       7.70
H      10.70      15.13       9.25
H      15.14       9.24      10.69
H       2.22       0.77       6.66
H       2.22      16.17      10.29
H       6.67      14.72      16.18
H       6.66       2.22       0.77
H       0.78      10.28      14.73
H      16.18       6.65      14.73
H      16.18      14.73       6.66
H      16.18       2.21      10.29
H      14.73      10.29       0.77
H       2.22       6.66       0.77
H      10.29       0.77      14.73
H      10.29      16.17       2.22
H      10.22      10.91      14.72
H       6.74       6.03      14.72
H       6.73      10.92       2.23
H      14.72       6.73       6.03
H       2.23      10.21       6.03
H       2.23       6.73      10.92
H       6.03       2.22      10.22
H       6.03      14.72       6.73
H      10.92       6.73       2.23
H      10.22       2.23       6.03
H      10.22      14.71      10.92
H      14.72      10.91      10.22
H       1.74       2.44       6.25
H       1.75      14.50      10.70
H       6.25      15.20      14.51
H       6.25       1.74       2.44
H       2.45      10.70      15.21
H      14.51       6.24      15.21
H      14.51      15.20       6.25
H      14.51       1.74      10.70
H      15.21      10.70       2.44
H       1.74       6.24       2.44
H      10.71       2.44      15.21
H      10.71      14.50       1.74
H      10.37      12.32       2.56
H       6.56       4.60       2.55
H       6.58      12.33      14.40
H      10.37       4.62      14.39
H       2.56       6.58       4.63
H       2.55      10.37      12.34
H      14.39      10.37       4.63
H      14.41       6.56      12.34
H       4.61      14.40      10.38
H      12.33      14.39       6.58
H       4.61       2.54       6.57
H      12.33       2.55      10.37
H       4.61       6.56       2.55
H      12.34      10.37       2.55
H       4.63      10.37      14.39
H      12.33       6.57      14.39
H      10.39      14.40       4.60
H       6.59      14.38      12.32
H       6.58       2.56       4.63
H      10.39       2.54      12.35
H       2.56      12.32      10.38
H       2.56       4.62       6.58
H      14.41      12.34       6.57
H      14.41       4.60      10.38
H       1.91       3.87      11.02
H      15.06      13.10      11.03
H      15.04       3.86       5.93
H       1.91      13.07       5.93
H      11.04      15.04      13.10
H      11.03       1.90       3.85
H       5.93       1.89      13.08
H       5.93      15.05       3.87
H      13.10       5.91       1.89
H       3.88       5.92      15.04
H      13.08      11.01      15.04
H       3.87      11.02       1.90
H      13.09      15.04      11.02
H       3.85       1.89      11.03
H      13.08       1.90       5.93
H       3.85      15.05       5.92
H       1.90       5.91      13.10
H      15.06       5.91       3.85
H      15.04      11.01      13.08
H       1.90      11.03       3.85
H      11.02       3.87       1.90
H      11.04      13.09      15.06
H       5.92       3.84      15.05
H       5.92      13.10       1.90
H      15.60       7.00      16.38
C      10.11      10.11      15.47
C       6.85       6.83      15.47
C       6.84      10.11       1.48
C      10.12       6.84       1.48
C      15.47       6.84       6.83
C      15.47      10.11      10.11
C       1.49      10.10       6.83
C       1.49       6.84      10.11
C       6.84       1.48      10.11
C      10.11       1.48       6.83
C       6.84      15.46       6.84
C      10.11      15.46      10.12
C       1.64       1.64       6.99
C      15.31      15.31       6.99
C      15.31       1.63       9.96
C       1.64      15.30       9.96
C       7.00      15.31      15.31
C       6.99       1.63       1.64
C       9.96       1.63      15.32
C       9.96      15.31       1.63
C      15.32       9.96       1.64
C       1.65       9.95      15.32
C      15.31       6.98      15.32
C       1.63       6.99       1.64
C      10.56      10.55      16.82
C       6.40       6.38      16.82
C       6.39      10.56       0.13
C      10.56       6.39       0.13
C      16.82       6.39       6.39
C      16.82      10.55      10.56
C       0.14      10.55       6.39
C       0.14       6.39      10.56
C       6.40       0.13      10.56
C      10.56       0.13       6.39
C       6.40      16.81       6.39
C      10.56      16.81      10.56
C       2.09       2.08       8.34
C      14.87      14.86       8.34
C      14.87       2.08       8.61
C       2.09      14.86       8.61
C       8.35      14.86      14.87
C       8.34       2.08       2.08
C       8.61       2.07      14.87
C       8.61      14.86       2.08
C      14.87       8.61       2.08
C       2.09       8.60      14.87
C      14.87       8.33      14.87
C       2.08       8.34       2.08
C      10.65      11.62       1.79
C       6.29       5.32       1.78
C       6.30      11.62      15.17
C      10.65       5.32      15.16
C       1.79       6.30       5.33
C       1.79      10.64      11.63
C      15.17      10.65       5.33
C      15.17       6.28      11.63
C       5.33      15.16      10.65
C      11.62      15.16       6.30
C       5.32       1.78       6.30
C      11.62       1.78      10.65
C       5.32       6.29       1.78
C      11.63      10.65       1.78
C       5.34      10.65      15.16
C      11.63       6.29      15.16
C      10.66      15.16       5.32
C       6.30      15.16      11.62
C       6.30       1.78       5.33
C      10.66       1.78      11.63
C       1.79      11.61      10.66
C       1.79       5.33       6.30
C      15.17      11.62       6.30
C      15.17       5.31      10.66
C       2.18       3.15      10.26
C      14.78      13.80      10.26
C      14.77       3.15       6.69
C       2.18      13.79       6.69
C      10.27      14.76      13.80
C      10.26       2.18       3.15
C       6.70       2.17      13.80
C       6.69      14.77       3.15
C      13.81       6.69       2.17
C       3.16       6.68      14.77
C      13.80      10.25      14.77
C       3.15      10.25       2.18
C      13.80      14.77      10.26
C       3.15       2.17      10.26
C      13.80       2.18       6.69
C       3.15      14.77       6.69
C       2.18       6.68      13.80
C      14.78       6.69       3.14
C      14.77      10.25      13.80
C       2.18      10.26       3.14
C      10.26       3.15       2.17
C      10.27      13.80      14.78
C       6.69       3.14      14.77
C       6.69      13.80       2.18
N       9.98      11.56       0.57
N       6.97       5.38       0.57
N       6.97      11.56      16.38
N       9.98       5.38      16.38
N       0.57       6.97       5.38
N       0.57       9.97      11.57
N      16.38       9.97       5.39
N      16.38       6.96      11.57
N       5.39      16.38       9.98
N      11.57      16.37       6.97
N       5.38       0.56       6.97
N      11.56       0.57       9.98
N       5.38       6.97       0.57
N      11.57       9.98       0.57
N       5.39       9.97      16.38
N      11.57       6.96      16.38
N       9.99      16.38       5.38
N       6.98      16.37      11.56
N       6.97       0.57       5.39
N       9.99       0.56      11.57
N       0.58      11.56       9.98
N       0.57       5.38       6.97
N      16.38      11.56       6.97
N      16.38       5.38       9.98
N       1.52       3.09       9.04
N      15.45      13.86       9.05
N      15.45       3.08       7.91
N       1.52      13.85       7.91
N       9.05      15.43      13.86
N       9.05       1.51       3.09
N       7.91       1.50      13.86
N       7.91      15.44       3.09
N      13.86       7.90       1.50
N       3.10       7.90      15.44
N      13.86       9.03      15.44
N       3.09       9.04       1.51
N      13.86      15.44       9.04
N       3.09       1.50       9.05
N      13.86       1.50       7.91
N       3.09      15.44       7.90
N       1.51       7.90      13.86
N      15.45       7.90       3.09
N      15.44       9.03      13.86
N       1.50       9.05       3.09
N       9.04       3.09       1.50
N       9.05      13.85      15.45
N       7.91       3.08      15.44
N       7.91      13.86       1.51
