52

H       4.99       2.17       7.26
H       4.00       2.07       9.53
H       1.62      -2.16      10.86
H      -0.87      -2.14      10.93
H       3.68       0.88      11.42
H       5.71       2.17       5.38
H       6.70       2.07       3.11
H       9.09      -2.15       1.80
H      11.57      -2.14       1.73
H       7.03       0.88       1.23
H       5.74      -2.18       5.40
H       6.73      -2.08       3.13
H       9.09       2.17       1.80
H      11.57       2.15       1.72
H       7.04      -0.90       1.23
H       4.98      -2.18       7.25
H       4.00      -2.08       9.52
H       1.63       2.16      10.85
H      -0.85       2.15      10.92
H       3.67      -0.90      11.42
C       4.77       1.20       7.69
C       4.21       1.18       8.95
C       1.08      -1.21      10.87
C      -0.31      -1.20      10.92
C       5.94       1.20       4.96
C       6.50       1.18       3.70
C       9.63      -1.21       1.79
C      11.02      -1.21       1.74
C       5.96      -1.20       4.97
C       6.52      -1.19       3.71
C       9.62       1.22       1.79
C      11.01       1.22       1.73
C       4.76      -1.21       7.68
C       4.20      -1.19       8.94
C       1.09       1.21      10.86
C      -0.30       1.22      10.91
C       5.06      -0.00       6.99
C       3.30      -0.00      10.91
C       1.79      -0.00      10.86
C      -1.01       0.01      10.98
C      -2.48       0.03      11.20
C       5.65      -0.00       5.66
C       7.41      -0.00       1.74
C       8.92       0.00       1.79
C      11.72       0.01       1.67
C      13.20       0.01       1.45
N       3.92      -0.01       9.56
N       6.80      -0.00       3.09
O      -3.11      -1.09      11.31
O      13.81      -1.11       1.40
O      13.80       1.14       1.34
O      -3.08       1.17      11.25
