16

O       9.26       2.68       7.97
C       7.19       1.11       5.49
C       7.16       1.04       4.12
C       8.32       1.28       3.37
C       9.53       1.56       4.01
C       9.55       1.68       5.40
C       8.36       1.53       6.13
O       9.27       0.47       1.38
O       7.09       0.84       1.48
H       6.22       0.77       3.66
H      10.47       1.97       5.89
C       8.25       0.97       1.95
O       7.07       2.38       7.86
C       8.24       2.14       7.44
F       6.04       0.87       6.17
F      10.68       1.74       3.31
