16

C      10.94       5.16       5.19
C      10.95       5.28       3.82
C      10.76       6.54       3.23
C      10.34       7.62       4.01
C      10.26       7.48       5.40
C      10.63       6.27       5.99
O       9.51       6.71       7.99
O      10.87       4.93       7.86
H      11.17       4.19       5.61
H      11.23       4.41       3.24
H      10.14       8.59       3.57
O      11.31       7.92       1.39
O      12.11       5.81       1.52
C      10.42       6.02       7.40
H       9.94       8.32       6.00
C      11.34       6.75       1.92
