648

C      10.20      27.65       0.70
C       9.52      27.36       1.92
C      10.16      27.60       3.16
C      11.42      28.22       3.16
C      12.14      28.50       1.97
C      11.51      28.21       0.73
C       8.21      26.83       1.87
C      -0.83      10.10      31.32
C      -3.44       9.01      31.27
C      -4.78       8.51      31.25
C      -5.44       8.31      30.01
C      -4.73       8.52      28.82
C      -3.38       8.95      28.80
C      -2.75       9.26      30.04
C       7.56      26.62       0.65
C      -1.45       9.80      30.09
C      22.28       4.83      23.74
C      21.65       6.05      24.13
C      20.31       6.30      23.74
C      19.60       5.30      23.07
C      20.20       4.09      22.64
C      21.56       3.85      22.99
C     -16.61       6.99      24.89
C      22.22       2.67      22.61
C     -15.34       4.59      24.12
C     -14.64       5.54      24.92
C     -13.31       5.27      25.35
C     -12.67       4.11      24.88
C     -13.31       3.18      24.04
C     -14.68       3.39      23.70
C     -15.29       6.73      25.30
C      23.57       2.44      22.94
C      10.43      13.21      24.00
C      11.79      13.02      23.61
C      12.47      11.84      24.00
C      11.76      10.84      24.67
C      10.43      11.00      25.10
C       9.75      12.20      24.75
C      12.44      14.02      22.85
C       8.41      12.43      25.13
C       9.74      14.41      23.62
C      10.41      15.39      22.82
C       9.71      16.55      22.39
C       8.40      16.76      22.86
C       7.74      15.85      23.70
C       8.39      14.63      24.04
C      11.75      15.17      22.44
C       7.75      13.63      24.80
C       9.98      27.80      15.22
C       9.93      27.06      14.00
C       9.95      27.75      12.76
C      10.11      29.15      12.75
C      23.12      -6.84      13.94
C      23.07      -7.52      15.19
C       9.87      25.65      14.04
C      23.09      -6.82      16.42
C       9.95      27.11      16.47
C       9.93      25.68      16.49
C       9.97      24.99      17.73
C       9.92      25.73      18.92
C      22.88      -9.61      18.94
C      22.95      -8.91      17.70
C       9.89      24.97      15.27
C      23.02      -7.50      17.65
C      -2.80      22.32      23.60
C      -3.47      21.41      22.73
C      -2.83      20.22      22.32
C      -1.57      19.91      22.86
C      -0.86      20.79      23.69
C      -1.48      22.01      24.07
C      -4.78      21.71      22.30
C      12.16     -13.80      24.91
C       9.55     -13.21      24.00
C       8.21     -12.95      23.57
C       7.55     -11.78      24.02
C       8.27     -10.84      24.79
C       9.61     -11.05      25.18
C      10.24     -12.27      24.83
C      -5.43      22.88      22.73
C      11.54     -12.59      25.27
C      -3.70      -4.60      24.14
C      -4.34      -5.54      25.01
C      -5.68      -5.34      25.42
C      -6.39      -4.25      24.88
C      -5.79      -3.28      24.05
C      -4.43      -3.46      23.67
C      -3.61      -6.68      25.44
C      -3.77      -2.54      22.83
C      -2.34      -4.80      23.74
C      -1.64      -5.98      24.17
C      -0.32      -6.21      23.72
C       0.32      -5.23      22.94
C      -0.32      -4.03      22.56
C      -1.68      -3.84      22.91
C      -2.30      -6.90      25.01
C      -2.42      -2.72      22.47
C     -15.56      -9.01      31.27
C     -14.20      -8.59      31.30
C     -13.51      -8.33      30.08
C     -14.23      -8.41      28.87
C      23.42      -8.86      28.80
C      22.74      -9.16      30.02
C      -0.56       9.95       0.72
C      21.40      -9.61      30.03
C      -3.25       9.08       0.67
C      -2.58       9.29       1.92
C      -3.28       9.08       3.14
C      -4.59       8.57       3.09
C      33.72       8.30       1.88
C      34.38       8.61       0.65
C      -1.24       9.73       1.92
C      20.74      -9.91      31.23
C      -3.01       9.67      16.47
C      -3.06      11.10      16.44
C      -3.05      11.83      17.65
C      -2.89      11.13      18.86
C      -2.86       9.72      18.93
C      -2.92       8.98      17.72
C      -3.12      11.76      15.20
C      -2.89       7.57      17.71
C      -3.04       8.93      15.24
C      -3.07       9.63      13.99
C      -3.03       8.90      12.78
C      -3.08       7.50      12.82
C      -3.11       6.78      14.03
C      -3.03       7.50      15.26
C      -3.10      11.04      13.99
C      -2.96       6.84      16.51
C      23.19       5.15       7.53
C      22.51       6.36       7.18
C      23.16       7.31       6.35
C      24.42       7.00       5.81
C      25.13       5.84       6.16
C      24.51       4.90       7.03
C      21.20       6.58       7.65
C      25.16       3.70       7.42
C      22.55       4.20       8.38
C      21.21       4.43       8.83
C      20.54       3.46       9.62
C      21.26       2.33      10.04
C      22.60       2.09       9.67
C      23.23       3.01       8.78
C      20.56       5.63       8.45
C      24.54       2.79       8.29
C       9.29      -0.23      15.77
C       8.66      -0.51      14.52
C       7.32      -0.97      14.50
C       6.61      -1.05      15.71
C       7.20      -0.81      16.96
C       8.56      -0.39      17.00
C       9.38      -0.32      13.33
C       9.23      -0.13      18.21
C      10.65       0.22      15.80
C      11.35       0.43      14.57
C      12.67       0.94      14.59
C      13.31       1.12      15.83
C      12.68       0.86      17.06
C      11.31       0.46      17.04
C      10.70       0.16      13.35
C      10.58       0.27      18.24
C      -2.57      -4.20       8.38
C      -1.20      -4.44       8.74
C      -0.52      -3.51       9.57
C      -1.23      -2.42      10.10
C      -2.57      -2.14       9.75
C      -3.25      -3.04       8.88
C     -13.55      31.15       8.26
C      34.39      -2.83       8.49
C      22.74      31.63       7.53
C      23.40      30.44       7.08
C      22.71      29.49       6.30
C      21.40      29.79       5.88
C      20.73      30.97       6.24
C      21.39      31.88       7.13
C     -14.23      30.23       7.46
C      33.73      -3.72       7.62
C      22.98      17.65       0.14
C      22.93      16.96       1.39
C      22.94      15.55       1.42
C      23.10      14.85       0.21
C      10.14      -2.88      30.78
C      10.08      -1.46      30.74
C      22.87      17.71       2.59
C      10.10      -0.75      29.53
C      22.95      19.08       0.12
C      22.92      19.82       1.34
C      22.96      21.23       1.32
C      22.91      21.90       0.08
C       9.88       2.83      30.68
C       9.96       1.41      30.69
C      22.88      19.11       2.57
C      10.03       0.66      29.50
C      15.75      29.34       4.64
C      16.90      29.98       5.12
C      17.73      30.74       4.25
C      17.31      30.86       2.90
C      16.15      30.23       2.42
C      15.37      29.42       3.28
C      14.31      28.64       2.84
C      19.04      31.08       4.62
C      16.42       3.37      20.18
C      15.34       2.67      19.61
C      15.41       1.28      19.37
C      16.60       0.61      19.78
C      17.68       1.31      20.37
C      17.62       2.71      20.53
C      18.70       3.47      20.96
C      14.52       0.65      18.50
C      11.01       7.23      27.62
C      10.72       5.97      28.18
C       9.38       5.55      28.37
C       8.35       6.43      27.92
C       8.65       7.68      27.34
C       9.99       8.12      27.22
C      10.34       9.39      26.79
C       9.07       4.50      29.23
C      22.65      -3.14      11.28
C      22.88      -1.84      10.80
C      23.37      -0.82      11.65
C      23.67      -1.18      12.99
C      23.45      -2.49      13.47
C      22.90      -3.48      12.63
C      22.53      -4.75      13.07
C      23.27       0.53      11.29
C       2.75      18.05      23.09
C       3.90      17.32      23.41
C       4.74      17.70      24.49
C       4.33      18.81      25.28
C       3.16      19.54      24.96
C       2.38      19.20      23.84
C       1.31      19.97      23.38
C       6.04      17.21      24.60
C      -9.57      -0.79      24.65
C     -10.65       0.05      24.33
C     -10.57       0.96      23.25
C      -9.39       0.94      22.46
C      -8.31       0.09      22.78
C      -8.37      -0.76      23.90
C      -7.29      -1.51      24.36
C     -11.47       2.03      23.14
C      24.00      -9.14      24.28
C      23.71      -9.00      22.91
C      22.37      -8.97      22.45
C      21.34      -9.02      23.43
C      21.64      -9.15      24.81
C      22.98      -9.25      25.25
C      23.34      -9.52      26.56
C      22.06      -9.19      21.10
C      -3.34      10.18      23.47
C      -3.11       9.94      24.83
C      -2.62       8.70      25.29
C      -2.31       7.72      24.31
C      -2.53       7.96      22.93
C      -3.09       9.18      22.50
C      -3.46       9.43      21.18
C      -2.72       8.33      26.64
C      28.75       7.73       4.11
C      29.90       7.82       3.31
C      30.72       6.69       3.08
C      30.30       5.46       3.64
C      29.14       5.36       4.43
C      28.37       6.51       4.71
C      27.30       6.52       5.61
C      32.03       6.84       2.60
C       3.42      -2.58      18.82
C       2.34      -2.73      19.71
C       2.42      -2.24      21.03
C       3.60      -1.55      21.41
C       4.68      -1.39      20.51
C       4.63      -1.94      19.22
C       5.70      -1.96      18.34
C       1.52      -2.67      22.02
C      -1.98       1.93      11.76
C      -2.28       3.04      12.57
C      -3.62       3.42      12.83
C      -4.64       2.59      12.30
C      -4.35       1.47      11.50
C      -3.01       1.14      11.19
C      -2.65       0.13      10.30
C      -3.92       4.69      13.31
C       9.67      -7.04      28.91
C       9.89      -8.11      28.03
C      10.38      -7.88      26.71
C      10.67      -6.54      26.35
C      10.46      -5.46      27.25
C       9.91      -5.70      28.53
C       9.54      -4.68      29.41
C      10.27      -8.86      25.73
C     -10.40       6.00      28.98
C      -9.28       6.66      29.51
C      -8.90       7.94      29.03
C      -9.72       8.55      28.06
C     -10.85       7.89      27.53
C     -11.19       6.58      27.96
C     -12.16       5.81      27.31
C      -7.68       8.54      29.38
C      11.61      21.03      19.69
C      11.36      19.75      20.22
C      10.24      18.99      19.79
C       9.43      19.54      18.76
C       9.69      20.82      18.23
C      10.76      21.61      18.71
C      10.93      22.95      18.36
C       9.84      17.82      20.43
C       2.59      -9.72      22.53
C       3.72     -10.51      22.84
C       4.10     -10.74      24.19
C       3.27     -10.20      25.20
C       2.15      -9.41      24.89
C       1.81      -9.13      23.55
C       0.84      -8.18      23.20
C       5.31     -11.34      24.54
C      -1.38       9.18       8.37
C      -1.64       9.36       7.00
C      -2.75      10.11       6.56
C      -3.56      10.73       7.54
C      -3.30      10.55       8.92
C      -2.23       9.75       9.36
C      -2.06       9.38      10.69
C      -3.16      10.14       5.22
C      15.59       3.72      12.14
C      16.71       3.85      11.30
C      17.09       2.80      10.43
C      16.26       1.65      10.39
C      15.14       1.52      11.23
C      14.80       2.54      12.15
C      13.83       2.38      13.14
C      18.30       2.80       9.74
C      24.60      24.91       3.77
C      24.35      26.01       4.61
C      23.23      26.01       5.48
C      22.43      24.85       5.52
C      22.68      23.75       4.68
C      23.76      23.77       3.76
C      23.92      22.80       2.77
C      22.83      27.15       6.18
C       3.77      -1.71      10.29
C       4.89      -1.58      11.13
C       5.23      -2.60      12.05
C       4.45      -3.78      12.03
C       3.33      -3.91      11.18
C       2.95      -2.86      10.32
C       1.72      -2.85       9.65
C       6.18      -2.42      13.06
C      23.43      11.96       5.63
C      23.17      13.06       4.79
C      22.10      13.04       3.87
C      21.24      11.91       3.88
C      21.50      10.81       4.72
C      22.62      10.80       5.59
C      23.04       9.65       6.26
C      21.95      14.00       2.86
C      -4.74      15.78      19.57
C      -4.49      17.06      20.11
C      -3.37      17.82      19.68
C      -2.56      17.27      18.65
C      -2.82      15.99      18.12
C      -3.89      15.21      18.60
C      -4.04      13.86      18.27
C      -2.95      18.97      20.34
C      -8.54      -6.06      29.08
C      -9.67      -6.72      29.61
C     -10.05      -8.00      29.14
C      -9.22      -8.61      28.17
C      -8.10      -7.95      27.64
C      -7.76      -6.64      28.06
C      -6.80      -5.86      27.40
C     -11.27      -8.59      29.46
C      10.43      25.89       7.54
C      10.18      26.07       8.92
C       9.10      26.88       9.36
C       8.25      27.44       8.37
C       8.51      27.26       7.00
C       9.62      26.51       6.56
C      10.05      26.51       5.23
C       8.96      27.27      10.69
C      16.76      10.32      25.21
C      17.88       9.53      24.90
C      18.23       9.24      23.55
C      17.45       9.85      22.54
C      16.32      10.64      22.85
C      15.94      10.86      24.19
C      14.71      11.44      24.53
C      19.18       8.28      23.21
H      11.85      28.46       4.06
H      -5.21       8.35      27.93
H       6.61      26.25       0.66
H       7.70      26.62       2.73
H      -0.93       9.99      29.23
H       0.12      10.49      31.31
H      18.60       5.46      22.86
H     -11.71       3.93      25.18
H     -14.81       7.44      25.87
H     -17.04       7.87      25.18
H      24.01       1.58      22.63
H      21.73       1.95      22.06
H      12.25       9.95      24.88
H       7.91      17.62      22.56
H      12.26      15.86      21.87
H      13.41      13.90      22.55
H       6.78      13.76      25.11
H       7.90      11.74      25.68
H      10.19      29.62      11.85
H       9.93      25.22      19.81
H       9.87      23.95      15.25
H       9.84      25.10      13.18
H      23.03      -6.95      18.51
H      23.15      -5.80      16.43
H      -1.15      19.00      22.61
H       7.78      -9.99      25.10
H      -6.39      23.05      22.40
H      -5.29      21.07      21.68
H      12.06     -11.94      25.87
H      13.11     -13.99      25.26
H      -7.38      -4.15      25.13
H       1.29      -5.40      22.64
H      -1.82      -7.74      25.33
H      -4.05      -7.37      26.05
H      -1.97      -2.01      21.87
H      -4.25      -1.71      22.49
H     -13.74      -8.15      28.01
H      -5.08       8.40       3.98
H      -0.74       9.88       2.80
H       0.42      10.27       0.76
H      19.77     -10.25      31.19
H      20.89      -9.73      29.15
H      -2.80      11.68      19.73
H      -3.07       6.98      11.93
H      -3.13      11.57      13.11
H      -3.15      12.78      15.15
H      -2.96       5.82      16.55
H      -2.84       7.05      18.59
H      24.84       7.67       5.15
H      20.78       1.63      10.62
H      19.60       5.82       8.76
H      20.69       7.43       7.41
H      25.05       1.94       8.55
H      26.10       3.50       7.09
H       5.61      -1.31      15.67
H      14.28       1.47      15.83
H      11.17       0.31      12.45
H       8.95      -0.50      12.42
H      11.02       0.44      19.15
H       8.74      -0.24      19.11
H      -0.75      -1.81      10.76
H      20.91      29.10       5.29
H     -13.73      29.39       7.16
H     -12.58      30.96       8.51
H      32.77      -3.51       7.35
H      33.88      -2.00       8.82
H      23.19      13.83       0.25
H      22.92      22.92       0.08
H      22.86      19.61       3.46
H      22.84      17.24       3.50
H      10.04       1.13      28.59
H      10.16      -1.25      28.63
H      17.90      31.36       2.23
H      17.18      29.81       6.09
H      15.22      28.75       5.29
H      15.92      30.29       1.43
H      14.19      27.75       3.28
H      19.72      31.08       3.89
H      16.71      -0.39      19.59
H      14.53       3.22      19.28
H      16.34       4.39      20.27
H      18.54       0.80      20.59
H      18.79       4.38      20.54
H      14.88      -0.10      17.94
H       7.37       6.19      28.08
H      11.50       5.41      28.53
H      12.00       7.51      27.55
H       7.88       8.31      27.09
H      11.16       9.79      27.21
H       8.25       4.60      29.79
H      23.98      -0.47      13.65
H      22.59      -1.63       9.84
H      22.24      -3.83      10.64
H      23.62      -2.69      14.46
H      21.73      -5.16      12.64
H      23.04       1.17      12.02
H       4.92      19.15      26.04
H       4.18      16.56      22.78
H       2.22      17.78      22.26
H       2.94      20.38      25.51
H       1.20      20.03      22.39
H       6.73      17.84      24.97
H      -9.27       1.61      21.70
H     -11.46       0.06      24.96
H      -9.65      -1.38      25.48
H      -7.45       0.15      22.23
H      -7.20      -1.60      25.35
H     -11.10       2.88      22.77
H      20.36      -9.05      23.14
H      24.49      -9.03      22.25
H      24.99      -9.22      24.55
H      20.87      -9.25      25.47
H      24.15     -10.08      26.70
H      21.24      -9.72      20.91
H      -2.00       6.78      24.59
H      -3.40      10.67      25.50
H      -3.75      11.08      23.19
H      -2.36       7.20      22.26
H      -4.26      10.01      21.04
H      -2.95       7.38      26.83
H      30.89       4.62       3.53
H      30.18       8.75       2.98
H      28.22       8.59       4.30
H      28.91       4.47       4.87
H      27.18       7.34       6.15
H      32.71       6.21       2.96
H       3.72      -1.22      22.37
H       1.54      -3.28      19.40
H       3.34      -3.01      17.89
H       5.54      -0.95      20.84
H       5.80      -2.78      17.77
H       1.89      -2.79      22.94
H      -5.63       2.85      12.42
H      -1.50       3.63      12.88
H      -1.00       1.73      11.56
H      -5.11       0.94      11.08
H      -1.83       0.29       9.74
H      -4.74       5.13      12.95
H      10.98      -6.32      25.40
H       9.61      -9.04      28.32
H       9.26      -7.25      29.83
H      10.62      -4.51      26.93
H       8.74      -4.85      29.98
H      10.04      -8.55      24.81
H      -9.48       9.47      27.67
H      -8.70       6.17      30.20
H     -10.59       5.05      29.30
H     -11.37       8.34      26.78
H     -12.39       4.92      27.71
H      -7.51       9.47      29.05
H       8.60      19.04      18.43
H      11.96      19.41      20.97
H      12.39      21.57      20.08
H       9.04      21.20      17.54
H      11.75      23.42      18.69
H       9.08      17.31      20.03
H       3.52     -10.32      26.19
H       4.29     -10.87      22.07
H       2.40      -9.53      21.54
H       1.62      -8.98      25.66
H       0.61      -8.08      22.24
H       5.48     -11.52      25.50
H      -4.39      11.27       7.28
H      -1.04       8.88       6.32
H      -0.61       8.57       8.64
H      -3.95      10.97       9.59
H      -1.25       8.86      10.94
H      -3.92      10.74       4.98
H      16.51       0.85       9.80
H      17.29       4.69      11.38
H      15.40       4.48      12.80
H      14.61       0.64      11.21
H      13.60       3.16      13.71
H      18.47       2.05       9.10
H      21.59      24.81       6.12
H      24.95      26.83       4.53
H      25.38      24.98       3.10
H      22.03      22.96       4.70
H      24.74      22.85       2.20
H      22.07      27.07       6.82
H       4.64      -4.54      12.69
H       5.41      -0.69      11.12
H       3.52      -0.91       9.70
H       2.76      -4.76      11.26
H       1.53      -2.08       9.05
H       6.37      -3.19      13.66
H      20.47      11.84       3.22
H      23.83      13.84       4.80
H      24.26      11.99       6.22
H      20.90       9.98       4.64
H      23.83       9.72       6.86
H      21.16      13.92       2.26
H      -1.72      17.77      18.33
H      -5.09      17.40      20.86
H      -5.52      15.24      19.97
H      -2.16      15.61      17.43
H      -4.83      13.37      18.64
H      -2.15      19.45      19.98
H      -9.47      -9.53      27.77
H     -10.24      -6.23      30.30
H      -8.35      -5.11      29.40
H      -7.57      -8.40      26.88
H      -6.61      -4.95      27.76
H     -11.47      -9.49      29.09
H       7.48      28.05       8.64
H      10.84      25.67       9.59
H      11.27      25.37       7.27
H       7.91      27.74       6.33
H      10.84      25.95       4.99
H       8.17      27.84      10.93
H      17.64       9.65      21.55
H      18.40       9.10      25.67
H      16.51      10.43      26.19
H      15.75      10.99      22.07
H      14.52      11.58      25.50
H      19.37       8.14      22.24
N      13.33      29.11       2.14
N       9.62      27.37       4.36
N      -2.89       9.20      27.58
N      -6.70       7.88      29.89
N      19.38       3.22      22.03
N      19.62       7.41      24.05
N     -12.59       2.08      23.77
N     -12.59       6.08      26.13
N       9.88       9.94      25.72
N      13.74      11.56      23.69
N       6.46      16.16      23.97
N      10.23      17.50      21.61
N      23.30      -5.51      13.77
N       9.91      27.16      11.56
N      22.94      -9.06      20.16
N       9.98      23.66      17.86
N       0.33      20.35      24.14
N      -3.37      19.29      21.52
N      10.10     -10.11      26.00
N       6.29     -11.45      23.71
N      -6.61      -2.31      23.60
N      -6.37      -6.15      26.22
N       0.40      -3.25      21.74
N       0.41      -7.29      24.03
N      22.87      -8.87      27.57
N     -12.24      -7.92      29.99
N      32.45       7.91       2.01
N      -2.76       9.28       4.35
N      -2.69       9.20      20.16
N      -3.08      13.16      17.74
N      -3.05       5.45      13.90
N      -3.02       9.46      11.56
N      26.32       5.67       5.55
N      22.61       8.47       5.95
N      23.10       0.91      10.07
N      19.29       3.57      10.06
N       6.39      -0.91      18.03
N       6.63      -1.25      13.39
N      13.39       1.17      18.14
N      13.40       1.21      13.50
N      -3.12      -1.07      10.36
N       0.75      -3.64       9.97
N      19.45      31.05       5.84
N      23.23      28.34       5.86
N      10.31      -3.69      29.71
N      22.90      14.80       2.53
N       9.94       3.61      29.59
N      22.97      22.01       2.41
