288

C       0.00      30.91      58.38
C       0.01       0.09       5.39
C       0.01     -30.40      58.58
C       9.07       0.90       6.12
C       9.09       0.89       7.53
C       0.05       0.07       8.24
C       0.95      -0.72       7.50
C       0.93      -0.72       6.09
C       9.23      29.79      58.86
C       9.25      28.58      58.14
C       0.04      28.45      56.94
C       0.77      29.57      56.49
C       0.75      30.79      57.19
C       9.08     -30.18      57.50
C       9.10     -28.96      56.80
C       0.05     -27.93      57.17
C       0.94     -28.16      58.24
C       0.92     -29.38      58.95
C       9.95     -33.74      60.42
C       9.94      35.42      59.69
C       9.94      34.18      60.36
C       9.94      69.34       0.83
C       9.95       0.17       1.58
C       9.95       1.41       0.90
C       0.00     -31.55      59.22
C       9.95     -32.59      59.80
C       0.01       0.11       4.08
C       9.95       0.13       2.89
C       9.94      33.06      59.68
C       9.95      32.04      59.05
C       9.86      17.31      50.49
C       9.92       8.00      50.04
C       9.70      12.06      42.81
C       0.01       7.05      49.00
C       0.01       5.67      49.30
C       9.92       5.22      50.64
C       9.91       6.18      51.68
C       9.89       7.56      51.39
C       0.41      17.38      51.81
C       0.40      18.61      52.51
C       9.85      19.79      51.90
C       9.34      19.70      50.59
C       9.35      18.48      49.89
C       0.53      12.69      41.82
C       0.51      12.21      40.49
C       9.67      11.10      40.13
C       8.87      10.49      41.12
C       8.89      10.96      42.45
C       9.83      12.72      46.53
C       9.84      13.95      47.22
C       9.86      13.98      48.64
C       9.88      12.77      49.36
C       9.88      11.53      48.68
C       9.85      11.51      47.27
C       9.75      12.44      44.05
C       9.80      12.66      45.23
C       9.91       9.27      49.74
C       9.89      10.39      49.32
C       9.86      15.13      49.27
C       9.86      16.17      49.85
C       9.88       0.05      21.12
C       9.92       4.31      29.41
C       9.70      -3.99      29.51
C       0.01       3.89      30.75
C       0.02       4.83      31.80
C       9.92       6.22      31.52
C       9.91       6.64      30.17
C       9.90       5.69      29.12
C       0.42       1.15      20.40
C       0.41       1.14      18.99
C       9.87       0.03      18.27
C       9.37      -1.07      19.00
C       9.37      -1.07      20.41
C       0.54      -5.16      29.46
C       0.52      -6.07      30.54
C       9.67      -5.82      31.68
C       8.87      -4.66      31.71
C       8.89      -3.74      30.64
C       9.84      -1.09      27.08
C       9.85      -1.11      25.67
C       9.87       0.10      24.93
C       9.89       1.34      25.62
C       9.89       1.37      27.04
C       9.86       0.15      27.76
C       9.76      -3.10      28.56
C       9.80      -2.19      27.78
C       9.91       3.42      28.46
C       9.90       2.49      27.70
C       9.87       0.08      23.63
C       9.88       0.06      22.43
C       9.88     -16.76      50.76
C       9.92     -11.71      42.92
C       9.70      -7.48      50.06
C       0.01     -10.34      42.62
C       0.02      -9.91      41.28
C       9.92     -10.84      40.22
C       9.91     -12.22      40.53
C       9.90     -12.65      41.87
C       0.42     -17.94      50.16
C       0.41     -19.15      50.87
C       9.87     -19.22      52.20
C       9.36     -18.03      52.78
C       9.37     -16.81      52.08
C       0.54      -6.93      51.09
C       0.52      -5.54      51.34
C       9.67      -4.68      50.56
C       8.87      -5.23      49.54
C       8.89      -6.62      49.28
C       9.84     -11.03      48.76
C       9.84     -12.24      49.49
C       9.87     -13.48      48.80
C       9.89     -13.50      47.39
C       9.88     -12.29      46.66
C       9.86     -11.06      47.35
C       9.76      -8.75      49.76
C       9.80      -9.87      49.36
C       9.91     -12.09      44.17
C       9.90     -12.28      45.35
C       9.87     -14.60      49.48
C       9.87     -15.63      50.09
C       8.87      23.05      54.39
C       8.57      24.26      55.05
C       9.59      25.18      55.37
C       0.97      24.86      54.98
C       1.29      23.65      54.31
C       0.24      22.73      54.02
C       9.28      26.32      56.12
C       0.50      21.46      53.51
C       8.86       0.48      14.21
C       8.56       0.43      12.83
C       9.58       0.28      11.87
C       0.96       0.17      12.33
C       1.29       0.21      13.71
C       0.24       0.39      14.67
C       9.25       0.32      10.51
C       0.49       0.59      16.02
C       8.86     -22.97      53.83
C       8.56     -24.13      54.57
C       9.58     -24.90      55.17
C       0.96     -24.43      55.05
C       1.29     -23.26      54.32
C       0.24     -22.52      53.69
C       9.26     -26.09      55.82
C       0.49     -21.45      52.83
C       0.92       8.47      34.95
C       1.16       9.35      36.01
C       0.09       9.92      36.73
C       8.72       9.63      36.31
C       8.46       8.75      35.24
C       9.55       8.14      34.55
C       0.35      10.72      37.84
C       9.37       7.13      33.62
C       0.92      -9.00      36.55
C       1.16      -8.52      35.25
C       0.09      -8.18      34.40
C       8.72      -8.39      34.86
C       8.46      -8.89      36.17
C       9.55      -9.17      37.03
C       0.35      -7.62      33.16
C       9.37      -9.47      38.37
C       0.92       1.13      50.87
C       1.16      -0.24      51.11
C       0.09      -1.14      51.24
C       8.72      -0.64      51.20
C       8.46       0.74      50.97
C       9.55       1.63      50.79
C       0.35      -2.50      51.38
C       9.37       2.94      50.38
H       1.63      -1.31       7.99
H       1.60      -1.31       5.59
H       8.45       1.51       8.03
H       1.29      31.58      56.83
H       8.69      29.85      59.73
H       8.74      27.78      58.53
H       1.33      29.50      55.63
H       8.42     -30.91      57.21
H       1.61     -27.44      58.51
H       1.58     -29.52      59.72
H       8.47     -28.84      56.01
H       9.94      68.44       1.32
H       9.94      35.45      58.66
H       9.95       2.28       1.43
H       8.40       1.51       5.64
H       9.89       5.88      52.66
H       9.87       8.23      52.16
H       0.07       5.00      48.53
H       8.97      18.45      48.94
H       0.77      16.55      52.28
H       0.75      18.63      53.47
H       8.96      20.53      50.13
H       1.14      13.48      42.05
H       8.29       9.68      40.90
H       8.32      10.48      43.15
H       1.10      12.68      39.79
H       9.90      12.78      50.39
H       9.82      14.83      46.69
H       9.85      10.61      46.77
H       0.04       7.34      48.02
H       9.90       7.63      29.94
H       9.88       6.03      28.15
H       0.07       4.50      32.76
H       9.00      -1.88      20.91
H       0.78       1.98      20.88
H       0.75       1.97      18.49
H       8.99      -1.89      18.51
H       1.14      -5.35      28.66
H       8.29      -4.45      32.53
H       8.32      -2.90      30.71
H       1.10      -6.90      30.48
H       9.91       2.22      25.10
H       9.83      -2.01      25.17
H       9.85       0.17      28.79
H       0.04       2.89      30.99
H       9.90     -12.91      39.78
H       9.88     -13.66      42.06
H       0.07      -8.90      41.08
H       9.00     -15.98      52.53
H       0.78     -17.93      49.20
H       0.75     -19.99      50.40
H       8.99     -18.05      53.74
H       1.14      -7.53      51.66
H       8.29      -4.63      48.95
H       8.32      -6.98      48.51
H       1.10      -5.17      52.10
H       9.91     -14.40      46.89
H       9.83     -12.22      50.51
H       9.85     -10.18      46.82
H       0.04      -9.63      43.36
H       8.10      22.39      54.22
H       7.60      24.44      55.32
H       1.72      25.51      55.21
H       3.28      24.08      54.16
H       2.86      22.65      53.46
H       8.40      26.37      56.56
H       1.22      20.92      53.93
H       8.09       0.63      14.86
H       7.58       0.53      12.55
H       1.72       0.07      11.65
H       3.29      -0.04      13.40
H       2.88       0.07      15.00
H       8.32       0.55      10.25
H       1.19       1.26      16.26
H       8.09     -22.48      53.37
H       7.58     -24.43      54.62
H       1.72     -24.97      55.48
H       3.29     -23.39      54.70
H       2.87     -22.06      53.81
H       8.33     -26.44      55.74
H       1.20     -21.57      52.14
H       1.73       8.02      34.50
H       2.13       9.53      36.30
H       7.94      10.05      36.82
H       6.42       8.95      35.37
H       6.92       7.95      34.14
H       1.12      11.34      37.82
H       8.79       6.37      33.88
H       1.73      -9.16      37.16
H       2.13      -8.36      34.96
H       7.94      -8.17      34.25
H       6.42      -8.87      35.93
H       6.92      -9.44      37.40
H       1.12      -7.95      32.63
H       8.79      -8.87      38.90
H       1.73       1.74      50.71
H       2.13      -0.57      51.12
H       7.94      -1.28      51.31
H       6.42       0.52      51.08
H       6.92       2.08      50.83
H       1.12      -2.79      51.93
H       8.78       3.10      49.59
N       0.15       0.06       9.57
N       0.15     -26.77      56.52
N       0.14      27.31      56.26
N       0.01       3.93      50.96
N       9.62      10.56      38.92
N       9.78      20.97      52.52
N       0.01       7.14      32.48
N       9.62      -6.60      32.76
N       9.80      -0.04      16.94
N       0.01     -10.47      38.94
N       9.62      -3.36      50.70
N       9.80     -20.34      52.92
N       2.59      23.43      53.97
N       2.60       0.09      14.07
N       2.60     -22.88      54.25
N       7.16       8.51      34.90
N       7.16      -9.06      36.54
N       7.16       1.15      50.93
