20

Cu       3.28       4.54       6.87
Cu       1.42       6.38       7.16
C       1.71       4.68       9.38
C       4.15       6.99       8.00
C       0.60       9.34       6.90
C      -1.13       8.04       7.72
C       3.00       6.24       4.66
C       0.55       3.93       6.04
C       4.10       1.59       7.13
C       5.84       2.88       6.32
N       0.10       8.12       7.19
N       4.60       2.80       6.84
O       1.02       5.68       9.00
O       2.66       4.11       8.74
O       4.59       5.88       7.58
O       2.95       7.42       7.97
O       3.68       5.24       5.04
O       2.05       6.81       5.29
O       0.11       5.04       6.46
O       1.76       3.51       6.07
