33

H       4.20       0.19      16.78
C       3.27       0.71      16.61
C       4.17      -5.99      17.80
H       3.40      -2.05      17.05
H       2.94      -4.17      18.32
H       4.26      -5.69      14.58
H      -2.34      -3.44      11.04
C       4.10      -5.64      15.65
H       1.82      -4.84      14.14
C       0.82      -3.60      11.57
C       2.09      -1.23      15.53
H       0.13       0.82      15.67
H       0.80      -0.67      13.88
C       2.73      -3.54      15.62
C      -1.35      -3.38      11.48
H       4.43      -6.51      18.71
C       1.13       1.01      16.03
H      -1.53      -2.56      13.57
H       3.42       2.78      17.40
N       2.16       0.09      16.04
N      -0.23      -3.80      10.78
N       0.41      -3.06      12.77
H       1.86      -3.74      11.31
N       4.57      -6.48      16.56
N       1.54       2.15      16.56
C       1.31      -1.48      14.39
N       3.41      -4.61      16.26
C      -0.97      -2.92      12.71
C       1.24      -2.78      13.89
C       2.86       1.99      16.92
C       2.81      -2.25      16.15
C       3.46      -4.83      17.63
C       1.94      -3.82      14.50
