36

C       1.14       3.51      24.73
C       2.02       4.40      21.19
H       2.07       5.28      20.55
C       3.12       8.62      20.89
C       0.98       4.78      25.32
C       0.73       0.70      27.36
C       1.30       5.97      24.56
H       1.27       7.93      22.68
C       1.94       7.10      22.46
H       0.04       1.63      24.97
H       3.69       6.57      21.37
H       0.11       4.07      27.18
C       1.78       4.58      22.58
H       1.55       8.13      24.70
H       2.29       3.04      19.56
C       0.77       2.28      25.45
H      -0.09       6.28      28.21
C       0.45       4.95      26.64
C       2.94       7.32      21.57
H       0.72       8.32      27.00
C       1.57       3.40      23.38
C       1.23       7.23      25.23
H       2.01       2.47      27.17
C       2.14       3.15      20.63
H       1.69       1.24      23.41
H       2.17       1.00      21.00
C       0.33       6.19      27.22
O       2.22       9.53      20.96
C       0.76       7.34      26.52
C       1.69       5.87      23.20
O       4.20       8.80      20.23
O      -0.31       0.09      26.96
O       1.36       0.37      28.45
C       1.24       1.90      26.65
C       1.77       2.12      22.78
C       2.04       1.99      21.44
