34

H       6.67       9.29       9.53
H       6.94      12.40       5.99
H       6.98      11.29       8.15
H       5.41       7.07       6.12
H       5.68       6.87       1.58
H       6.63      12.36       3.61
H       8.11       6.98       4.70
H       7.96       6.17       3.07
H       7.67       5.25       4.59
C       5.96       6.83       8.68
C       6.68      10.37       7.67
C       6.05       8.05       7.88
C       5.82       9.00       1.38
C       5.79       7.81       2.11
C       6.00       7.79       3.49
C       6.11       9.01       4.22
C       6.23      10.22       3.47
C       6.16       9.07       5.65
C       6.52      10.30       6.28
C       6.69      11.45       5.52
C       6.51      11.43       4.14
C       5.84       7.98       6.50
C       6.49       9.24       8.46
C       6.07      10.21       2.06
C       6.14      11.47       1.29
C       7.54       6.24       4.10
N       5.64       8.94      -0.05
O       7.08       6.24       8.96
O       4.79       6.39       9.02
O       5.02      12.06       1.01
O       7.31      11.90       0.96
O       4.87       8.03      -0.57
O       6.36       9.68      -0.84
O       6.16       6.55       4.07
