22

C       4.63       7.40       6.69
C      -0.60      12.27       6.69
C       3.84      12.27       5.84
C       0.19       7.40       5.84
C       2.01       9.84       2.90
C       2.01       9.84       1.42
C       6.46       9.84       9.62
C       6.46       9.84      11.11
La       2.01       9.84       5.87
La       6.46       9.84       6.66
O       4.11       8.52       6.39
O       5.86       7.39       7.07
O       0.91       9.90       3.53
O      -0.09      11.15       6.39
O       7.06      12.28       7.07
O       3.11       9.78       3.53
O       4.35      11.15       6.13
O       2.61      12.28       5.46
O       7.56       9.78       8.99
O      -0.33       8.52       6.13
O       1.41       7.39       5.46
O       5.36       9.90       8.99
