18

Mn       2.55       8.77       4.27
Mn       0.19       7.17       5.44
Mn       4.92       6.97       3.47
O       3.33       6.93       5.02
O       1.69       5.92       6.18
O       5.79       5.83       5.00
O       0.97       7.41       3.47
O       6.44       6.83       2.04
O       3.42       8.05       2.52
O       5.71       8.56       4.65
O       4.05      10.04       4.98
C       2.90       5.98       5.78
O       1.06       9.06       5.66
C       5.23       4.91       5.82
C       0.55       7.17       2.27
C       2.87       7.74       1.32
C       5.27       9.68       5.13
C       0.49      10.22       6.08
