18

C       4.17      -1.87       8.04
C       1.85      -2.38       7.05
Mn       6.88      -1.03       8.95
Mn       2.15       0.63       7.86
Mn       4.51       0.74       9.84
O       6.09       0.84       8.31
O       0.63       1.88       7.18
O       3.63       1.96       8.38
O       1.36       0.24       9.80
O       2.98       0.78      11.25
O       6.00      -0.41      10.75
O       3.72      -0.78       8.58
O       5.39      -2.23       8.16
O       1.28      -1.23       7.49
C      -0.58       1.82       7.57
C       4.18       2.89       7.57
C       1.78       0.44      11.01
C       6.56      -0.13      11.96
