116

Zn       4.13       3.33      13.84
Zn       1.13       3.66      13.54
H       6.37       4.58      12.78
H       2.95       7.38       1.39
H      -1.00       3.53      21.02
H      -1.46       2.63      19.50
H       5.92       1.92      21.12
H       0.22       0.83      20.18
H       0.51       1.73      21.65
H       4.66       6.47       7.34
H       6.17       6.33       6.36
H       4.58       6.22       5.55
H       6.10       4.17       7.18
H      -1.11       2.41      14.61
H       5.21       3.94       5.68
H       1.61       0.12       6.97
H       0.29       0.31       8.19
H      -0.12       0.11       6.46
H      -0.30       2.48       7.45
H       0.54       2.31       5.89
H       5.93       4.90      19.12
H       5.04       6.48      19.07
H      -1.57       6.13      20.41
H       3.75       5.96      21.01
H       2.93      -0.24      23.71
H       4.71       4.50      21.38
H       0.75       0.82      11.32
H       2.47       0.55      10.79
H       1.14      -0.46      10.13
H       1.52       6.86      11.65
H       0.00       7.35      12.49
H       2.80       6.45      16.59
H       4.53       6.18      16.06
H       4.14       7.47      17.24
H       5.26      -0.36      14.88
H       2.44       7.00       3.69
H       3.74       0.13      15.72
H       1.03       2.48       9.57
H       4.00       4.69      17.85
H       2.56       0.41       2.71
H       2.55       6.32      24.65
H       2.38      -0.64      26.01
C       2.48       0.94      13.63
C       2.91       2.47       3.23
C       2.33       3.37      17.72
C       2.92       3.51       9.65
C       3.30       2.88       0.47
C       1.98       3.85      26.92
C       3.37       5.31       0.88
C       1.93       1.42      26.52
C       3.21       3.99       1.35
C       2.06       2.74      26.04
C       2.88       1.62       0.96
C       2.78       6.05      13.75
C       2.35       5.12      26.42
C       2.82       1.39       2.34
C       2.33       5.34      25.03
C       2.44       3.33      16.26
C       2.82       3.63      11.11
C       2.32       0.37      25.66
C       3.01       6.37       1.73
C       2.50      -0.46      13.36
C       2.76       7.45      14.01
C       2.78       2.14      22.46
C       2.31       2.96      24.67
C       2.49       4.62       4.92
C       2.14       4.41      22.77
C       2.92       2.29       4.62
C       3.25       4.23      19.81
C       1.83       2.72       7.61
C       3.25       4.15      18.42
C       1.86       2.86       9.00
C       1.36       2.62      18.41
C       4.00       4.03       8.90
C       1.32       2.68      19.83
C       2.94       3.77       2.72
C       3.99       3.90       7.50
C       2.29       3.47      20.52
C       2.89       3.27       6.86
C       0.28       1.86      20.58
C      -1.09       2.53      20.54
C       5.16       4.43       6.67
C       5.13       5.95       6.48
C       0.62       2.08       6.98
C       0.61       0.56       7.16
C       4.27       5.09      20.56
C       2.60       1.89      23.82
C       5.42       5.68      19.73
C       1.00       7.71      12.15
C       1.51       0.06      11.03
C       4.27      -0.71      15.22
C       3.77       6.94      16.34
C       2.69       4.86       3.57
C       2.67       0.60      24.34
C       2.67       6.15       3.06
C       2.24       4.26      24.16
I       0.10       1.26      17.33
I       5.60       5.08       9.88
I       0.05      -1.48      27.13
I       5.26       8.20       0.20
N       2.42       3.35      21.95
N       2.75       3.38       5.44
N      -0.86       3.88      13.33
N       6.12       3.11      14.05
O       3.65       1.42      13.78
O       2.09       5.62       5.74
O       3.11       1.07       5.14
O       1.74       5.60      22.26
O       1.61       5.57      13.60
O       1.41       1.67      13.55
O       3.86       5.32      13.83
O       3.62       3.25      15.76
O       1.64       3.74      11.62
O       1.38       3.50      15.53
O       3.88       3.49      11.85
O       3.22       1.15      21.65
