16

O      -4.77       1.22       5.15
O      -2.50      -5.47       6.99
O      -5.92       0.58       7.01
O      -1.30      -4.78       5.18
C      -4.59      -1.86       7.06
C      -5.01       0.42       6.11
C      -4.21      -0.83       6.18
C      -3.10      -1.01       5.34
C      -2.41      -2.22       5.34
H      -5.45      -1.69       7.70
H      -1.56      -2.39       4.69
H      -2.81      -0.20       4.68
C      -2.83      -3.27       6.19
C      -3.91      -3.07       7.06
H      -4.21      -3.89       7.72
C      -2.15      -4.60       6.12
