16

O       3.49       3.52       5.13
C      -2.86       4.11       6.09
C      -1.37       4.02       6.15
C      -0.67       3.31       5.16
C       1.42       4.02       6.16
C       0.72       4.69       7.17
C       2.91       4.12       6.09
H      -1.23       2.79       4.39
O      -3.44       3.52       5.12
H       1.28       5.22       7.94
O       3.48       4.84       6.98
C      -0.67       4.69       7.17
C       0.72       3.31       5.17
H      -1.24       5.22       7.93
H       1.29       2.78       4.40
O      -3.44       4.81       6.99
