62

La       5.35       6.59       5.39
La       9.97       6.10       5.01
H       5.93       1.88       5.88
H       7.65      11.29       5.96
H       4.41       6.12       1.69
H       4.25       7.68       1.69
H       4.75       4.49       0.21
H       8.58       6.37       9.08
H       2.44       4.64       0.65
H       6.28       6.55       9.52
H       7.22       3.09       7.98
H       6.43       4.42       8.22
H       6.37       2.52       2.90
H       4.95       2.81       2.32
H       9.40      10.82       4.53
H       7.67       1.40       4.44
H      10.91       6.57       8.71
H      11.07       5.02       8.71
H      10.57       8.20      10.20
H       6.75       6.32       1.33
H      12.88       8.05       9.75
H       9.04       6.15       0.88
H       8.10       9.60       2.43
H       8.89       8.27       2.19
H       8.95      10.17       7.51
H      10.37       9.88       8.08
C       5.93       1.04       5.38
C       3.76       6.84       1.61
C       8.23       6.02       9.92
C       6.92       6.73      10.23
C       7.32       4.03       8.17
C       5.44       2.68       3.14
C       2.79       6.74       2.76
C       5.38       3.97       3.94
C       8.06       4.68       7.03
C       9.39      11.65       5.02
C      11.56       5.85       8.80
C       7.09       6.67       0.49
C       8.40       5.96       0.18
C       8.01       8.66       2.24
C       9.88      10.02       7.26
C      12.53       5.95       7.64
C       9.94       8.72       6.47
C       7.26       8.01       3.38
S       7.18       8.52      10.36
S       8.12       4.22       9.78
S       4.83       1.21       3.92
S       8.14       4.18       0.04
S       7.20       8.47       0.63
S      10.49      11.48       6.49
O       3.30       6.64       3.92
O       6.00       4.96       3.45
O      10.69       6.74       2.60
O       4.75       4.05       5.02
O       9.30       4.54       6.93
O       7.41       5.37       6.19
O      12.02       6.05       6.49
O       9.32       7.73       6.95
O       4.63       5.96       7.81
O      10.57       8.65       5.39
O       6.02       8.15       3.48
O       7.91       7.33       4.21
