276

C      18.79      12.79      29.75
C       7.76      11.82       0.63
C       8.88      10.99       0.75
C      21.07      10.98      29.93
C      20.94      11.93      28.88
C      19.86      12.84      28.82
C      22.33      10.09      30.00
C      23.48      11.11      30.05
C      24.50      11.23      29.07
C      25.55      12.16      29.19
C      14.45      13.11       0.09
C      13.37      13.08       1.01
C      12.37      12.09       0.94
C      11.21       9.13       1.05
C      22.40       9.12      28.81
C      23.54       8.27      28.64
C      23.61       7.31      27.63
C      22.52       7.06      26.77
C      21.36       7.85      26.95
C      21.31       8.85      27.94
C      10.20       8.14       1.20
C      10.23       7.16       2.21
C      11.30       7.13       3.13
C      12.33       8.08       3.00
C      12.29       9.04       1.98
C      18.80      16.95       0.15
C      30.07      17.91      29.27
C      31.19      18.75      29.15
C      32.23      18.76      30.12
C      20.95      17.80       1.01
C      19.87      16.90       1.08
C      33.49      19.65      30.05
C      34.64      18.62      30.00
C      24.52      18.51       0.83
C      25.57      17.58       0.71
C      36.76      16.63      29.81
C      35.68      16.66      28.89
C      34.68      17.65      28.96
C      33.51      20.61      28.85
C      22.42      20.62       1.09
C      23.55      21.46       1.26
C      23.62      22.43       2.28
C      22.53      22.68       3.13
C      21.37      21.89       2.95
C      21.32      20.89       1.96
C      32.50      21.60      28.70
C      32.54      22.57      27.69
C      33.61      22.61      26.77
C      34.64      21.66      26.90
C      34.60      20.70      27.92
C      29.96      29.67      17.03
C      18.93       0.55      17.99
C      20.05       0.67      18.83
C      32.24      29.85      18.84
C      32.10      28.80      17.88
C      31.03      28.74      16.98
C      33.49      29.92      19.73
C      34.64      29.97      18.71
C      35.67      28.99      18.59
C      36.72      29.11      17.66
C      25.62       0.01      16.71
C      24.54       0.93      16.75
C      23.54       0.86      17.73
C      22.37       0.97      20.69
C      33.57      28.73      20.70
C      34.70      28.56      21.55
C      34.77      27.54      22.52
C      33.68      26.69      22.76
C      32.52      26.87      21.97
C      32.47      27.86      20.97
C      21.36       1.12      21.68
C      21.39       2.13      22.65
C      22.46       3.05      22.69
C      23.49       2.92      21.74
C      23.45       1.90      20.78
C       7.65       0.07      12.87
C      18.91      29.19      11.91
C      20.03      29.07      11.07
C      21.08      30.04      11.06
C       9.80       0.93      12.02
C       8.72       1.00      12.92
C      22.33      29.97      10.17
C      23.48      29.92      11.20
C      13.36       0.74      11.31
C      14.41       0.63      12.24
C      25.60      29.73      13.19
C      24.53      28.81      13.15
C      23.52      28.88      12.17
C      22.36      28.77       9.21
C      11.26       1.01       9.20
C      12.39       1.18       8.35
C      12.47       2.20       7.39
C      11.37       3.05       7.14
C      10.22       2.87       7.93
C      10.16       1.88       8.93
C      21.35      28.62       8.22
C      21.38      27.61       7.25
C      22.45      26.69       7.21
C      23.49      26.82       8.16
C      23.44      27.84       9.12
C      11.41       4.06       6.11
C      11.90       3.80       4.80
C      11.88       4.83       3.81
C      11.37       6.11       4.11
C      10.90       6.37       5.41
C      10.92       5.36       6.39
C      12.86       3.32       2.23
C      12.85       2.30       3.19
C      33.71      25.68      23.79
C      34.20      25.94      25.10
C      34.19      24.91      26.09
C      33.68      23.63      25.79
C      33.20      23.37      24.49
C      33.22      24.38      23.51
C      35.16      26.42      27.67
C      35.15      27.44      26.71
C      22.56       6.03      25.76
C      23.05       4.72      26.02
C      23.04       3.73      24.99
C      22.53       4.03      23.71
C      22.05       5.33      23.45
C      22.07       6.31      24.46
C      24.01       2.15      26.50
C      24.00       3.11      27.52
C      22.56      23.71       4.14
C      23.05      25.02       3.88
C      23.04      26.01       4.91
C      22.52      25.71       6.19
C      22.05      24.41       6.45
C      22.07      23.43       5.44
C      24.01      27.59       3.40
C      24.00      26.63       2.38
C      17.69      16.02       0.20
C      17.12      15.54       1.41
C      16.07      14.56       1.39
C      15.51      14.09       0.17
C      27.21      14.63      29.13
C      28.28      15.53      29.14
C      16.10      14.51       3.79
C      17.07      15.53       3.81
C      17.68      13.71      29.70
C      17.10      14.20      28.49
C      38.38      15.18      28.51
C      37.82      15.65      29.73
C      27.23      15.11       0.77
C       5.98      14.21       0.75
C      16.09      15.22      26.11
C      17.05      14.21      26.09
C       6.54       0.12      13.80
C       5.96       1.33      14.28
C      27.24       1.31      15.26
C      26.68       0.09      15.73
C      38.38      29.05      15.20
C      17.13      29.06      14.29
C      27.27       3.71      15.31
C      28.23       3.73      14.29
C      28.84      29.62      16.10
C      28.27      28.41      15.61
C      27.23      28.43      14.64
C      26.67      29.65      14.17
C      16.07       0.69      14.70
C      17.14       0.67      15.61
C      27.25      26.02      14.59
C      28.22      26.01      15.61
H      24.48       6.77      27.53
H      24.34       8.37      29.27
H      20.52       7.68      26.39
H      20.42       9.34      28.05
H       9.41       8.10       0.54
H       9.48       6.47       2.27
H      13.14       8.05       3.62
H      13.10       9.66       1.90
H      11.64      12.10       1.65
H      13.29      13.78       1.74
H      26.29      12.13      28.49
H      24.51      10.64      28.24
H      21.67      12.01      28.17
H       8.92      10.39       1.57
H       7.03      11.73       1.34
H      19.89      13.55      28.09
H      24.49      22.97       2.38
H      24.35      21.37       0.64
H      20.53      22.06       3.51
H      20.43      20.40       1.85
H      31.72      21.63      29.36
H      31.79      23.27      27.63
H      35.45      21.69      26.28
H      35.41      20.08      28.01
H      33.95      17.64      28.25
H      35.60      15.96      28.16
H      26.30      17.61       1.41
H      24.52      19.10       1.66
H      21.68      17.72       1.73
H      31.23      19.35      28.33
H      29.33      18.01      28.56
H      19.90      16.18       1.80
H      35.64      27.44      23.05
H      35.50      29.18      21.45
H      31.68      26.31      22.14
H      31.58      27.97      20.48
H      20.58       0.46      21.71
H      20.64       2.18      23.35
H      24.31       3.54      21.78
H      24.27       1.82      20.17
H      22.81       1.57      17.72
H      24.46       1.66      16.04
H      37.46      28.41      17.70
H      35.67      28.16      19.18
H      32.83      28.09      17.80
H      20.09       1.49      19.43
H      18.19       1.26      18.09
H      31.06      28.02      16.26
H      13.34       2.30       6.85
H      13.20       0.55       8.45
H       9.38       3.43       7.76
H       9.27       1.77       9.42
H      20.56      29.28       8.19
H      20.63      27.55       6.55
H      24.30      26.20       8.13
H      24.25      27.92       9.73
H      22.79      28.16      12.18
H      24.44      28.07      13.86
H      15.15       1.33      12.21
H      13.37       1.58      10.72
H      10.53       1.65      12.09
H      20.07      28.25      10.47
H      18.18      28.48      11.81
H       8.75       1.72      13.64
H      13.21       3.15       1.28
H      13.19       1.36       2.97
H      10.57       5.59       7.33
H      10.52       7.29       5.66
H      35.51      26.59      28.62
H      35.49      28.38      26.93
H      32.88      24.15      22.57
H      32.83      22.45      24.24
H      24.36       1.20      26.67
H      24.34       2.89      28.46
H      21.72       7.24      24.23
H      21.68       5.57      22.53
H      24.36      28.54       3.23
H      24.34      26.85       1.44
H      21.73      22.49       5.67
H      21.67      24.16       7.37
H      15.73      14.13       4.66
H      17.43      15.90       4.69
H      28.66      15.81      28.24
H      26.84      14.36      28.22
H      15.71      15.61      25.24
H      17.41      13.84      25.21
H       6.36      13.92       1.66
H      26.86      15.38       1.68
H      26.90       4.58      15.70
H      28.60       4.61      13.92
H      17.51      28.16      14.01
H      38.01      28.14      15.46
H      26.88      25.16      14.20
H      28.58      25.13      15.98
H      17.53       1.58      15.89
H      15.70       1.60      14.44
N      12.37       4.54       2.57
N      12.37       2.58       4.43
N      34.67      25.20      27.33
N      34.67      27.16      25.47
N      23.52       2.49      25.29
N      23.51       4.35      27.24
N      23.52      27.25       4.62
N      23.52      25.39       2.66
N      15.65      14.08       2.59
N      17.53      15.99       2.62
N      37.95      15.66      27.30
N      17.52      13.75      27.28
N      26.81       2.51      15.74
N       6.38       2.54      13.83
N      26.80      27.22      14.16
N      28.69      27.20      16.06
