24

H      -0.79      -1.66      10.37
H      -4.63      -1.90      11.94
H      -5.61      -1.60       9.63
H      -1.07      -0.61       2.91
H       2.77      -0.35       1.34
H       3.75      -0.64       3.66
C      -2.41      -1.44       8.94
C      -1.87      -1.62      10.21
C      -3.99      -1.77      11.08
C      -4.53      -1.60       9.81
C      -1.60      -1.27       7.73
C       0.55      -0.80       4.34
C       0.01      -0.63       3.06
C       2.13      -0.48       2.21
C       2.67      -0.64       3.48
C      -0.26      -0.97       5.55
N      -3.75      -1.44       8.74
N      -2.65      -1.80      11.29
N      -2.30      -1.11       6.58
N      -0.27      -1.28       7.83
N       1.89      -0.80       4.54
N       0.80      -0.46       1.99
N       0.44      -1.13       6.70
N      -1.59      -0.96       5.45
