28

C       1.49       8.83       7.58
C       1.06       9.38       8.76
C       0.59      10.73       8.82
C       0.07      13.63       6.35
H       1.09      11.50       5.49
H       1.86       9.16       5.47
H       1.83       7.80       7.55
H       1.06       8.78       9.67
C       0.06      11.31      10.00
C      -0.46      12.62      10.02
C      -0.95      13.23      11.22
C      -1.38      14.53      11.23
C      -1.36      15.30      10.04
C      -0.93      14.75       8.86
H      -1.71      16.33      10.07
H      -0.94      15.36       7.96
C      -0.46      13.40       8.80
C       0.05      10.50      11.27
H      -1.74      14.98      12.15
H      -0.97      12.64      12.13
O      -1.07      13.94       5.87
O       1.21      13.94       5.87
O       1.19      10.19      11.75
O      -1.09      10.19      11.75
C       0.06      12.83       7.62
C       0.59      11.52       7.60
C       1.07      10.91       6.40
C       1.50       9.61       6.39
