28

H       2.72       5.46      12.13
H       1.92       3.12      12.14
H       1.94       1.78      10.05
H       2.70       2.76       7.94
C       3.73       5.28       7.62
C       4.27       6.59       7.61
C       4.76       7.20       6.41
C       5.20       8.49       6.40
C       5.20       9.26       7.60
C       4.77       8.71       8.78
C       4.28       7.36       8.83
C       3.73       4.48       6.35
H       4.77       6.61       5.49
H       5.57       8.94       5.48
H       5.55      10.29       7.57
H       4.78       9.31       9.68
O       4.89       7.90      11.75
O       2.61       7.90      11.74
O       2.59       4.17       5.88
O       4.87       4.16       5.88
C       3.75       6.79      10.00
C       3.21       5.48      10.02
C       2.73       4.87      11.22
C       2.28       3.57      11.22
C       2.29       2.81      10.03
C       2.72       3.36       8.85
C       3.20       4.71       8.79
C       3.75       7.59      11.27
