13

K      11.68       3.77       2.77
Zn      11.66       0.18       4.08
O       9.38       4.42       1.63
O      11.80      -1.77       3.78
O      10.09       0.66       5.16
O      10.90       2.77       5.03
C      10.00       1.95       5.33
O      13.38       0.86       4.68
C      14.18       1.53       3.91
C       9.78       0.75       1.96
O      10.94       1.10       2.33
C      12.00      -2.32       2.63
C       8.42       4.34       0.83
