32

K      14.74      21.69      16.30
K      21.39      20.49      16.57
K      24.75      22.61      17.27
K      18.11      23.80      17.02
Zn      17.65      19.58      17.27
Zn      21.84      24.71      16.31
C      23.75      19.82      19.42
C      20.17      26.48      17.62
C      23.94      26.30      16.28
C      25.92      23.68      20.70
C      22.62      22.82      14.34
C      21.52      22.90      18.75
O      19.35      18.61      16.99
O      15.94      23.92      15.28
O      15.76      19.17      16.73
O      13.64      20.56      14.14
O      16.42      22.24      18.34
O      17.70      20.50      19.02
O      18.48      21.12      15.96
O      20.15      25.69      16.57
O      23.61      20.38      18.29
O      23.73      25.12      16.85
O      25.84      23.73      19.44
O      23.07      22.05      15.23
O      21.79      23.78      14.56
O      21.01      23.17      17.62
C      15.74      24.46      14.16
C      19.32      17.81      15.95
C      15.55      17.99      17.29
C      13.56      20.61      12.88
C      16.87      21.47      19.24
C      17.96      21.40      14.83
