116

Zn       6.48       4.37      13.62
Zn       3.47       4.07      13.93
H       6.38       5.25       9.31
H       7.20       3.29      17.77
H       8.75       3.23      14.78
H       1.20       5.21      12.77
H       3.47       5.39      18.12
H       2.85       2.86       9.89
H       3.74       5.49      20.54
H       2.57       2.65       7.47
H       4.56       7.24      26.96
H       5.12       0.82       0.73
H       2.00       6.70       1.09
H       7.41       1.23      26.43
H       3.11       0.06      13.94
H       6.84       8.38      13.61
H       6.92       6.98       7.77
H       8.11       5.60       7.73
H       7.95       6.72       6.33
H       6.83       4.54       5.88
H       5.71       5.94       5.84
H       1.48       3.60      18.60
H       9.21       5.04      19.69
H       2.31       3.54      20.17
H       8.09       3.67      21.42
H       7.98       2.28      20.28
H       2.26       0.20       2.31
H       1.09       8.40       2.23
H       1.17       0.83       3.59
H       1.20       6.95       4.22
H       2.91       7.47       4.49
H       7.68       7.94      24.68
H       7.39       8.20      22.90
H       9.01       7.74      23.48
H       8.10       1.71      22.86
H       8.82       1.37      24.42
H       4.33       0.75      26.07
H       2.58       0.29      25.90
H       3.33       1.51      24.80
H       5.36       8.37      23.80
H       3.66       7.81      23.67
H       4.96       7.40       1.87
H       6.76       7.55       1.73
H       6.04       6.58       3.06
H       6.24       0.32       3.82
H       5.12       8.49       4.15
C       4.80       6.73      13.81
C       5.15       1.71      13.74
C       3.85       3.80       2.84
C       5.70       4.28      24.78
C       3.27       4.85       3.62
C       6.15       3.20      24.00
C       2.67       5.97       2.96
C       6.84       2.13      24.61
C       4.44       2.67       3.48
C       5.33       5.50      24.15
C       4.64       4.08       9.75
C       5.31       4.30      17.80
C       5.07       5.16      26.96
C       4.45       2.86       0.66
C       6.11       2.95      26.80
C       3.34       5.04       0.80
C       5.62       4.13      26.18
C       3.88       3.90       1.43
C       4.80       6.40      26.35
C       4.84       1.67       1.31
C       4.90       6.60      24.96
C       4.85       1.55       2.71
C       4.80       4.20      11.19
C       5.15       4.23      16.36
C       2.62       5.96       1.57
C       6.81       2.02      26.00
C       4.71       8.12      13.83
C       5.23       0.32      13.72
C       3.31       4.73       5.02
C       5.91       3.24      22.63
C       4.61       2.73       4.88
C       5.45       5.57      22.74
C       3.41       3.22       7.87
C       4.52       5.03      19.95
C       3.57       3.35       9.23
C       4.35       4.95      18.58
C       5.56       4.69       8.88
C       6.47       3.79      18.39
C       5.40       4.60       7.49
C       6.68       3.92      19.77
C       4.31       3.84       7.00
C       5.65       4.49      20.57
C       6.32       5.30       6.51
C       7.39       6.20       7.14
C       7.98       3.39      20.35
C       1.42       3.93      19.65
C       2.16       7.20       3.72
C       1.97       8.48       2.90
C       7.87       1.30      23.86
C       8.11       8.33      23.73
C       4.51       7.96      24.37
C       3.50       0.56      25.35
C       5.24       0.22       3.35
C       5.91       7.49       2.44
N       4.07       3.75       5.59
N       5.69       4.44      22.01
N       1.46       3.86      14.14
N       8.48       4.58      13.41
O       5.98       6.25      13.69
O       3.97       2.19      13.86
O       3.72       6.02      13.92
O       6.22       2.42      13.63
O       5.99       4.34      11.70
O       3.95       4.10      15.85
O       3.73       4.11      11.93
O       6.21       4.33      15.62
O       2.62       5.56       5.82
O       5.87       2.09      21.92
O       5.32       6.74      22.09
O       5.35       1.82       5.54
