28

C       7.86       1.86       2.25
C       7.87       0.90       1.09
C       7.32      -0.39       1.26
C       7.31      -1.31       0.15
C       6.76      -2.61       0.34
C       6.26      -2.99       1.57
C       6.26      -2.08       2.65
C       6.77      -0.81       2.50
H       9.01       3.31       0.50
H       9.89       3.99      -1.70
H       9.88       2.37      -3.61
H       8.98       0.11      -3.33
O       6.78      -1.99      -2.88
O       9.00      -2.42      -2.44
O       8.95       1.99       2.88
O       6.73       2.42       2.44
H       6.72      -3.31      -0.50
H       5.84      -3.99       1.70
H       5.85      -2.37       3.61
H       6.75      -0.11       3.33
C       7.87      -1.86      -2.25
C       7.86      -0.90      -1.09
C       8.41       0.39      -1.26
C       8.42       1.31      -0.15
C       8.97       2.61      -0.34
C       9.48       2.99      -1.57
C       9.47       2.08      -2.65
C       8.96       0.81      -2.50
