28

H       7.37       6.15       7.73
H       8.40       6.57       9.93
H       7.00       7.38      11.85
H       4.58       7.73      11.57
O       1.66       6.87      11.11
O       2.41       9.01      10.68
H       0.50       7.48       8.73
H      -0.53       7.06       6.54
H       0.87       6.26       4.62
H       3.28       5.90       4.90
O       6.20       6.76       5.35
O       5.46       4.62       5.79
C       2.32       7.75      10.48
C       3.15       7.26       9.32
C       4.54       7.09       9.49
C       5.35       6.64       8.38
C       6.75       6.47       8.57
C       7.33       6.72       9.80
C       6.54       7.16      10.88
C       5.18       7.36      10.73
C       5.54       5.88       5.98
C       4.72       6.37       7.14
C       3.32       6.54       6.97
C       2.52       6.99       8.08
C       1.12       7.17       7.89
C       0.54       6.92       6.66
C       1.33       6.47       5.58
C       2.69       6.27       5.73
