13

Ni      11.45       3.77       5.45
C      12.31       6.42       4.62
C      11.01       5.65       3.06
N      11.72       5.30       4.20
N      12.31       3.09       7.12
C       9.22       5.57       6.22
N      12.49       2.54       4.27
C       8.99       3.58       7.08
N       9.78       4.35       6.23
C      13.23       2.05       7.28
C      12.16       3.63       8.34
C      13.80       2.88       3.95
C      12.05       1.78       3.27
