13

N       7.11       6.64      19.16
N       6.92       6.09      16.31
Ni       7.97       7.32      17.48
C      10.20       9.12      18.26
C      10.43       7.13      19.11
C       6.20       5.60      19.32
C       7.26       7.17      20.38
C       5.62       6.42      15.98
C       7.37       5.32      15.30
N       9.64       7.90      18.26
C       7.11       9.96      16.66
C       8.40       9.19      15.10
N       7.69       8.84      16.24
