448

Zn       0.72       3.70      16.29
Zn       4.01       6.49       0.65
Zn       8.76      14.20      16.29
Zn       5.14      16.91       0.64
Zn       0.70       6.39      15.07
Zn       4.06       3.74      30.69
Zn       8.74      16.89      15.00
Zn       5.32      14.17      30.65
H       3.73       5.29       5.17
H       4.56       9.06       9.70
H       6.74       8.25       5.52
H       2.06       8.47       9.64
H       0.44      10.14      10.41
H       6.99       4.42      13.07
H       4.66       4.68       7.36
H       5.21       8.95       7.30
H       0.43      11.43      14.87
H       3.39       7.92      13.70
H       3.95       4.80       9.74
H       1.67       9.48      14.49
H       6.24       7.72       2.82
H       6.18       6.11      11.50
H       7.60       3.70      15.04
H       6.16      11.93      12.84
H       2.96       3.93      14.57
H       7.83      10.36      11.28
H       2.15       5.59      12.93
H       5.54       0.55      16.90
H       3.74       1.96      15.33
H       1.00       5.03      20.83
H       0.18       1.22      25.32
H       7.36       2.09      21.16
H       2.69       1.81      25.28
H       4.31       0.13      26.05
H       7.17       5.85      28.75
H       0.07       5.63      23.04
H       8.91       1.37      22.93
H       4.14      19.53      30.51
H       1.31       2.29      29.34
H       0.79       5.47      25.42
H       3.03       0.73      30.13
H       7.87       2.63      18.47
H       7.96       4.15      27.17
H       6.58       6.58      30.72
H       7.80      19.03      28.49
H       1.83       6.33      30.21
H       6.13      20.58      26.92
H       2.61       4.66      28.57
H       8.58       9.79       1.26
H       1.06       8.30      30.97
H       5.53      15.66       5.18
H       4.79      19.45       9.68
H       2.54      18.63       5.53
H       7.28      18.85       9.63
H       8.93      20.49      10.41
H       2.41      14.74      13.09
H       4.59      15.06       7.38
H       4.13      19.33       7.29
H       9.06       1.07      14.87
H       5.91      18.34      13.69
H       5.33      15.19       9.75
H       7.65      19.87      14.48
H       3.03      18.10       2.83
H       3.17      16.46      11.52
H       1.84      14.06      15.11
H       3.37       1.48      12.89
H       6.46      14.32      14.55
H       1.53      20.68      11.31
H       7.22      16.00      12.90
H       3.95      10.88      16.88
H       5.71      12.30      15.26
H       8.39      15.35      20.80
H       9.17      11.56      25.32
H       1.99      12.37      21.14
H       6.68      12.17      25.28
H       5.05      10.51      26.06
H       2.18      16.28      28.71
H      -0.04      15.95      23.00
H       0.43      11.67      22.92
H       5.12       9.19      30.51
H       8.08      12.68      29.32
H       8.64      15.82      25.38
H       6.35      11.13      30.13
H       1.49      12.91      18.45
H       1.42      14.57      27.13
H       2.75      16.92      30.76
H       1.42       8.73      28.55
H       7.52      16.67      30.20
H       3.06      10.30      26.97
H       6.76      15.01      28.54
H       0.56      20.15       1.26
H       8.28      18.70      30.92
H       3.79       4.99      26.14
H       4.56       1.19      21.64
H       6.80       2.04      25.80
H       2.05       1.82      21.69
H       0.42       0.15      20.93
H       6.98       5.85      18.23
H       4.74       5.59      23.94
H       5.22       1.32      24.03
H       0.34      19.49      16.50
H       3.45       2.28      17.64
H       4.01       5.46      21.57
H       1.73       0.71      16.86
H       6.30       2.58      28.50
H       6.19       4.15      19.81
H       7.56       6.52      16.20
H       6.02      19.06      18.47
H       2.94       6.31      16.75
H       7.67      20.64      20.03
H       2.15       4.64      18.39
H       5.50       9.73      14.43
H       3.72       8.32      16.04
H       0.97       5.24      10.49
H       0.15       9.07       6.02
H       7.36       8.21      10.19
H       2.65       8.48       6.04
H       4.26      10.16       5.27
H       7.09       4.44       2.62
H       0.02       4.66       8.28
H       8.90       8.93       8.41
H       4.18      11.53       0.84
H       1.27       7.98       1.99
H       0.73       4.81       5.91
H       2.98       9.55       1.20
H       7.87       7.64      12.88
H       7.90       6.13       4.20
H       6.48       3.79       0.58
H       7.87      12.01       2.80
H       1.72       3.98       1.08
H       6.25      10.41       4.36
H       2.53       5.64       2.72
H       8.60       0.51      30.09
H       0.92       1.97       0.39
H       5.63      15.32      26.06
H       4.83      11.48      21.60
H       2.56      12.42      25.74
H       7.30      12.03      21.65
H       8.94      10.37      20.90
H       2.40      16.03      18.14
H       4.69      15.91      23.84
H       4.16      11.65      23.99
H       9.03       9.11      16.44
H       6.07      12.62      17.57
H       5.42      15.74      21.47
H       7.81      11.07      16.80
H       3.06      12.99      28.43
H       3.21      14.32      19.68
H       1.80      16.88      16.24
H       3.28       8.63      18.51
H       6.46      16.68      16.78
H       1.58      10.17      20.06
H       7.26      14.99      18.39
H       3.87      20.10      14.52
H       5.67      18.63      16.04
H       8.29      15.69      10.38
H       9.06      19.53       5.94
H       1.99      18.55      10.05
H       6.58      18.98       6.01
H       4.94      20.65       5.27
H       2.11      15.04       2.45
H       9.22      15.09       8.15
H       0.37      19.35       8.32
H       4.97       1.20       0.82
H       7.80      18.42       1.91
H       8.46      15.28       5.79
H       6.06      19.98       1.16
H       1.52      17.99      12.74
H       1.28      16.75       4.00
H       2.71      14.21       0.53
H       1.33       1.63       2.88
H       7.44      14.34       1.11
H       3.05       0.11       4.44
H       6.62      16.02       2.72
H       0.76      10.89      30.13
H       8.25      12.40       0.38
C       2.83       8.05      11.62
C       4.50       5.99       4.86
C       4.58       8.10       9.18
C       5.03       4.08      13.96
C       4.17       6.94       9.88
C       4.95       6.81       7.17
C       6.03       7.59       5.03
C       0.90       9.90      12.51
C       2.00       8.71      10.70
C       1.07       9.64      11.14
C       4.12       5.99      12.12
C       5.93       4.68      13.07
C       4.62       5.64       7.87
C       4.95       8.04       7.84
C       9.03      11.36      14.13
C       2.74       8.40      12.98
C       4.22       5.71       9.20
C       1.76       9.29      13.42
C       5.79       7.29       3.71
C       5.47       5.63      12.17
C       6.82       3.01      15.34
C       7.17      11.59      13.04
C       3.67       4.41      13.90
C       7.99      10.84      12.24
C       3.21       5.34      12.97
C       5.71       1.42      16.28
C       4.80       2.10      15.51
C       1.90       2.21      27.27
C       0.23       4.33      20.52
C       0.16       2.18      24.82
C       9.14       6.19      29.62
C       0.57       3.33      25.53
C       9.17       3.50      22.82
C       8.07       2.75      20.68
C       3.82       0.34      28.14
C       2.74       1.56      26.34
C       3.67       0.62      26.78
C       0.63       4.27      27.78
C       8.23       5.59      28.74
C       0.11       4.66      23.54
C       9.18       2.27      23.48
C       4.93      19.61      29.77
C       1.98       1.83      28.62
C       0.51       4.58      24.87
C       2.94       0.93      29.06
C       8.32       3.05      19.36
C       8.67       4.63      27.84
C       7.36       7.27      31.01
C       6.78      19.36      28.68
C       1.11       5.85      29.55
C       5.97      20.11      27.88
C       1.55       4.91      28.62
C       8.39       8.92       0.64
C       9.39       8.17      31.17
C       6.49      18.44      11.61
C       4.77      16.36       4.87
C       4.76      18.49       9.18
C       4.38      14.43      13.96
C       5.15      17.33       9.87
C       4.34      17.19       7.18
C       3.24      17.97       5.05
C       8.44      20.27      12.50
C       7.34      19.09      10.69
C       8.28      20.00      11.14
C       5.23      16.37      12.12
C       3.46      15.02      13.08
C       4.65      16.02       7.88
C       4.37      18.42       7.84
C       0.47       0.98      14.14
C       6.58      18.80      12.97
C       5.06      16.10       9.21
C       7.56      19.68      13.42
C       3.48      17.66       3.72
C       3.89      15.99      12.18
C       2.63      13.36      15.38
C       2.34       1.18      13.07
C       5.73      14.79      13.89
C       1.52       0.44      12.26
C       6.16      15.74      12.96
C       3.76      11.76      16.27
C       4.65      12.44      15.48
C       7.49      12.58      27.25
C       9.15      14.64      20.50
C       9.20      12.52      24.80
C       0.22      16.57      29.60
C       8.82      13.68      25.50
C       0.21      13.82      22.80
C       1.29      13.04      20.66
C       5.55      10.74      28.15
C       6.63      11.93      26.34
C       5.70      11.00      26.78
C       8.75      14.64      27.75
C       1.13      15.99      28.70
C       9.29      14.99      23.51
C       0.18      12.58      23.46
C       4.31       9.27      29.79
C       7.41      12.21      28.61
C       8.89      14.92      24.84
C       6.43      11.33      29.06
C       1.04      13.34      19.34
C       0.70      15.03      27.80
C       1.97      17.62      31.04
C       2.44       9.05      28.73
C       8.25      16.21      29.53
C       3.24       9.81      27.92
C       7.82      15.27      28.59
C       0.74      19.28       0.65
C       9.33      18.55      31.14
C       2.85       2.20      19.71
C       4.55       4.29      26.45
C       4.59       2.16      22.15
C       5.02       6.17      17.35
C       4.20       3.31      21.45
C       5.00       3.46      24.15
C       6.09       2.70      26.29
C       0.92       0.35      18.84
C       2.00       1.57      20.64
C       1.07       0.63      20.21
C       4.13       4.26      19.20
C       5.92       5.58      18.24
C       4.68       4.63      23.44
C       4.97       2.23      23.49
C       8.92      19.58      17.23
C       2.78       1.82      18.37
C       4.27       4.55      22.11
C       1.80       0.92      17.92
C       5.85       3.00      27.61
C       5.48       4.62      19.14
C       6.78       7.23      15.93
C       7.04      19.38      18.28
C       3.66       5.83      17.41
C       7.85      20.15      19.09
C       3.21       4.89      18.34
C       5.67       8.85      15.04
C       4.77       8.17      15.83
C       1.85       8.08       4.06
C       0.21       5.94      10.81
C       0.13       8.11       6.52
C       9.03       4.12       1.71
C       0.53       6.96       5.81
C       9.14       6.78       8.51
C       8.07       7.54      10.66
C       3.77       9.95       3.18
C       2.69       8.73       4.98
C       3.62       9.67       4.54
C       0.56       6.03       3.55
C       8.14       4.71       2.62
C       0.07       5.63       7.79
C       9.16       8.02       7.86
C       4.98      11.45       1.56
C       1.93       8.45       2.71
C       0.47       5.71       6.46
C       2.90       9.35       2.26
C       8.31       7.22      11.98
C       8.60       5.66       3.52
C       7.25       3.08       0.30
C       6.86      11.68       2.61
C       1.00       4.46       1.76
C       6.06      10.90       3.42
C       1.47       5.39       2.69
C       8.44       1.39      30.70
C       9.26       2.13       0.18
C       6.58      12.47      19.66
C       4.85      14.64      26.37
C       4.81      12.45      22.10
C       4.37      16.46      17.32
C       5.22      13.59      21.38
C       4.40      13.79      24.08
C       3.28      13.08      26.22
C       8.53      10.63      18.80
C       7.38      11.80      20.59
C       8.33      10.88      20.17
C       5.28      14.52      19.13
C       3.46      15.80      18.16
C       4.74      14.94      23.35
C       4.42      12.55      23.43
C       0.43       9.19      17.19
C       6.71      12.14      18.30
C       5.15      14.84      22.03
C       7.69      11.25      17.87
C       3.52      13.40      27.54
C       3.92      14.83      19.05
C       2.59      17.58      15.98
C       2.27       8.96      18.30
C       5.74      16.16      17.41
C       1.44       9.70      19.10
C       6.19      15.21      18.32
C       3.70      19.21      15.10
C       4.61      18.49      15.85
C       7.30      18.55       4.00
C       9.08      16.36      10.69
C       9.09      18.56       6.43
C       0.14      14.58       1.64
C       8.67      17.42       5.72
C       0.12      17.21       8.40
C       1.27      17.91      10.53
C       5.35      20.40       3.17
C       6.50      19.22       4.95
C       5.55      20.14       4.53
C       8.60      16.52       3.46
C       1.04      15.26       2.48
C       9.17      16.06       7.67
C       0.10      18.46       7.76
C       4.19       1.12       1.57
C       7.17      18.90       2.65
C       8.74      16.17       6.35
C       6.19      19.80       2.23
C       1.04      17.59      11.85
C       0.58      16.22       3.36
C       1.93      13.50       0.27
C       2.34       1.32       2.68
C       8.16      14.87       1.74
C       3.19       0.59       3.48
C       7.69      15.82       2.65
C       0.93      11.79      30.71
C      -0.08      12.55       0.17
N       3.71       7.01      11.21
N       4.83       6.29       3.62
N       9.19      10.69      12.93
N       7.82      11.91      14.22
N       5.20       6.75       5.77
N       5.52       3.13      14.90
N       6.97       1.99      16.17
N       1.03       3.25      26.86
N       9.28       4.05      19.28
N       4.77      20.27      28.57
N       6.13      19.05      29.87
N       8.90       3.58      21.43
N       8.66       7.15      30.56
N       7.13       8.35       0.54
N       5.62      17.40      11.20
N       4.42      16.66       3.63
N       0.31       0.32      12.94
N       1.68       1.51      14.24
N       4.06      17.13       5.79
N       3.92      13.47      14.90
N       2.50      12.33      16.21
N       8.36      13.61      26.84
N       0.10      14.35      19.25
N       4.45       9.95      28.59
N       3.11       8.72      29.89
N       0.46      13.88      21.40
N       0.68      17.52      30.55
N       2.00      18.70       0.58
N       3.73       3.24      20.12
N       4.89       4.00      27.70
N       9.06      20.27      18.41
N       7.72      19.03      17.13
N       5.26       3.53      25.54
N       5.49       7.13      16.41
N       6.93       8.25      15.10
N       0.98       7.04       4.47
N       9.26       6.22      12.06
N       4.86      10.76       2.74
N       6.18      12.01       1.46
N       8.89       6.71       9.91
N       8.55       3.17       0.77
N       7.19       2.00      30.77
N       5.69      13.50      20.06
N       4.50      14.38      27.62
N       0.25       9.84      18.39
N       1.64       8.64      17.11
N       4.13      13.88      25.47
N       3.89      17.44      16.41
N       2.44      18.63      15.18
N       8.19      17.52       4.39
N       0.06      16.62      11.94
N       4.38       0.46       2.76
N       2.97       1.64       1.49
N       0.41      17.11       9.78
N       0.63      13.61       0.73
N       2.18      12.39      30.78
