31

C      11.65      17.97      16.86
C      11.32      18.20      19.21
C      10.06      17.62      19.14
C       9.29      17.41      20.30
C       9.80      17.78      21.53
O      12.15      18.39      18.13
C      11.86      18.64      20.47
C      11.08      18.39      21.64
O      13.04      19.22      20.48
C      11.55      18.69      22.95
C      14.19      20.00      24.67
C      14.71      20.26      26.02
O      14.92      20.38      23.65
C      14.28      19.50      27.12
C      15.69      21.25      26.23
H      12.44      18.17      16.13
H      11.42      16.89      16.85
H      10.75      18.53      16.57
H       9.65      17.32      18.18
H       8.31      16.95      20.23
H       9.24      17.60      22.44
H      10.92      18.43      23.80
H      13.53      18.73      26.98
H      14.55      19.18      29.25
H      16.93      22.19      27.74
H      16.03      21.86      25.39
C      14.84      19.75      28.37
C      16.18      21.44      27.52
N      12.71      19.23      23.23
N      13.02      19.39      24.57
N      15.78      20.70      28.57
