31

O      11.76       7.72       7.45
O      10.85       8.54       9.79
O       8.94       9.70      12.95
C      12.27       7.29       6.18
C      12.58       7.52       8.54
C      13.84       6.94       8.47
C      14.60       6.73       9.64
C      14.07       7.09      10.86
C      12.80       7.70      10.96
C      12.02       7.96       9.79
C      12.31       8.00      12.27
C       9.66       9.32      13.97
C       9.12       9.57      15.32
C       9.54       8.82      16.43
C       8.97       9.07      17.67
H      11.47       7.50       5.46
H      12.49       6.21       6.18
H      13.17       7.85       5.89
H      14.25       6.65       7.51
H      15.58       6.26       9.58
H      14.63       6.90      11.78
H      12.92       7.74      13.13
C       8.14      10.56      15.52
C       7.63      10.75      16.80
H       6.88      11.50      17.01
H       7.81      11.17      14.68
H       9.25       8.51      18.56
H      10.30       8.05      16.31
N      11.15       8.55      12.54
N      10.83       8.71      13.88
N       8.03      10.02      17.86
