31

N      10.81       1.96      18.22
N       8.06       0.65      14.22
O      11.68       2.96      24.66
O      10.79       2.13      22.31
O       8.91       0.97      19.14
C      12.18       3.38      25.93
C      12.51       3.15      23.58
C      13.77       3.73      23.65
C      14.54       3.94      22.49
C      14.03       3.57      21.26
C      12.75       2.96      21.15
C      11.97       2.71      22.32
C      12.28       2.66      19.84
C       9.64       1.35      18.12
C       9.12       1.09      16.77
C       9.55       1.85      15.67
C       8.99       1.60      14.42
H      11.39       3.18      26.66
C       7.65      -0.09      15.27
H      12.42       4.46      25.94
H      13.09       2.82      26.22
H      14.18       4.03      24.61
H      15.53       4.40      22.56
H      14.60       3.76      20.35
H      12.91       2.92      18.99
C       8.14       0.10      16.56
H      10.30       2.62      15.81
H       7.80      -0.51      17.40
H       9.28       2.17      13.54
H       6.90      -0.84      15.05
N      11.12       2.12      19.56
