13

Gd      -4.19       4.13       7.71
O      -5.65       2.27       8.00
O      -5.29       4.92       9.61
O      -2.74       6.00       8.00
O      -3.08       3.35       9.62
C      -5.22       1.08       7.99
O      -2.52       3.34       6.42
C      -3.16       7.19       7.99
O      -5.87       4.91       6.42
C      -1.26       3.06       6.34
C      -7.12       5.20       6.34
C      -4.84       4.56      10.75
C      -3.53       3.71      10.75
