13

Gd       6.79       0.02       6.62
O       5.12       0.81       7.92
O       8.47      -0.77       7.92
C       3.86       1.08       7.99
C       9.73      -1.05       7.99
O       8.26       1.87       6.33
O       7.89      -0.77       4.72
O       5.34      -1.85       6.33
O       5.69       0.80       4.71
C       7.82       3.06       6.34
C       5.77      -3.05       6.34
C       7.44      -0.42       3.59
C       6.13       0.43       3.58
