16

C      10.10       6.80      16.48
C       9.07       6.11      17.32
C       9.12       4.72      17.48
C       8.19       4.06      18.27
C       7.16       6.19      18.82
C       8.07       6.84      17.99
C       6.14       4.09      19.74
C       7.20       4.79      18.95
O      11.18       6.10      16.31
O       9.89       7.96      16.03
O       6.20       2.78      19.63
O       5.27       4.71      20.38
H       9.91       4.17      16.96
H       8.19       2.98      18.38
H       6.41       6.75      19.37
H       8.01       7.91      17.87
