28

H      10.01      15.97      11.67
H      10.55      14.61      12.67
C      12.08      19.62      10.12
C      12.13      18.22       9.61
C      12.33      17.03      10.35
C      12.27      15.98       9.43
C      12.39      14.51       9.60
C      14.95      18.12      11.92
C      13.75      17.42      12.46
C      12.61      16.94      11.79
C      11.78      16.37      12.78
C      10.46      15.70      12.63
N      11.96      17.92       8.31
N      12.05      16.56       8.22
N      12.39      16.49      13.98
N      13.58      17.14      13.77
H      12.04      16.10       7.32
H      14.25      17.13      14.58
H      13.00      20.16       9.86
H      11.24      20.16       9.67
H      11.97      19.61      11.21
H      12.46      14.00       8.62
H      13.29      14.27      10.18
H      11.52      14.09      10.13
H      15.09      19.10      12.39
H      15.87      17.53      12.07
H      14.84      18.27      10.84
H       9.77      15.99      13.44
