20

H       6.08       5.51      15.48
H       6.18       6.51      13.24
H      11.17       8.34      14.29
H      10.83       6.65      13.57
H      11.07       7.42      16.51
H      10.74       5.72      15.78
C       8.20       7.99      12.14
C       9.07       7.09      15.74
C       8.00       6.28      16.13
C       6.93       6.13      15.22
C       6.99       6.70      13.93
C       8.12       7.42      13.51
C       9.13       7.65      14.46
C      10.59       7.40      14.35
C      10.53       6.81      15.75
C       7.96       5.63      17.46
O       7.09       8.31      11.57
O       9.38       8.16      11.60
O       9.08       5.31      18.04
O       6.79       5.46      18.00
