56

La      10.11       0.43       6.17
La       5.77       9.73       3.02
H       6.30       3.87       5.05
H       7.84       2.77       3.59
H       6.36       4.54       1.12
H       3.89       2.52       0.94
H       3.28       4.47       3.16
H       3.82       2.32       5.23
H       9.58       6.13       4.19
H       8.07       7.35       5.63
H       9.50       5.56       8.03
H      12.05       7.62       8.24
H      12.64       5.61       6.01
H      12.11       7.75       3.86
C       7.36       3.75       5.36
C       7.09       1.33       5.06
C       8.05       2.55       4.67
C       6.11       4.91       0.10
C       5.69       1.31       0.26
C       4.38       2.08       0.05
C       2.57       4.89       3.90
C       2.37       1.13       3.94
C      12.99       1.94       5.19
C       8.58       6.33       3.77
C       8.95       8.76       3.99
C       7.79       7.42       4.56
C       9.76       5.22       9.06
C      10.23       8.79       8.91
C      11.54       8.02       9.13
C      13.35       5.20       5.27
C      13.53       8.92       5.21
C       2.93       8.14       3.93
O       7.91       4.53       6.11
O       7.60       0.44       5.80
O       5.96       1.35       4.50
O       9.33       2.31       4.94
O      12.00       4.74       8.35
O      11.30       0.64       8.37
O       6.07       1.13       1.46
O       8.97       1.99       8.09
O      11.61       5.13       3.63
O      11.47       0.53       4.00
O       3.23       1.08       3.01
O      12.19       2.13       6.10
O       8.09       5.68       2.88
O       8.40       9.50       3.19
O      10.00       8.64       4.62
O       6.60       7.73       4.25
O       3.89       5.43       0.83
O       4.63       9.49       0.80
O       9.85       8.92       7.72
O       6.94       8.11       1.10
O       4.31       4.96       5.54
O       4.44       9.50       5.17
O      12.65       8.95       6.12
O       3.75       7.96       3.03
