36

C       8.27       2.71      10.38
C       8.99      -1.66       7.20
H      10.04       0.76       6.70
H       8.71       0.28      11.44
H      12.85       4.52       6.60
H      11.17       6.24       5.99
H       8.78       5.90       6.56
H       8.08       3.86       7.76
H      12.19       2.57       7.96
H       6.38      -1.50       8.42
H       4.77      -3.09       9.40
H       9.14      -2.33      11.64
H       7.47      -3.85      12.65
H       5.27      -4.19      11.55
O       7.04       2.66       9.95
O       8.58       3.47      11.42
O       9.32      -2.87       7.60
O       8.47      -1.46       6.00
C       9.18       1.68       9.88
C       9.67       1.79       8.55
C       9.66       0.67       7.71
C       9.11      -0.54       8.15
C       8.74      -0.68       9.51
C       8.98       0.39      10.40
C       7.88      -1.80       9.96
C       6.65      -2.04       9.31
C       5.73      -2.93       9.88
C       6.01      -3.55      11.09
C       7.25      -3.35      11.71
C       8.19      -2.50      11.14
C      10.09       3.10       8.00
C      11.44       3.30       7.67
C      11.82       4.42       6.92
C      10.87       5.37       6.55
C       9.52       5.17       6.87
C       9.13       4.03       7.58
