36

C       1.92       6.37       3.31
C       2.08       6.17       5.80
C       2.30       5.94       2.03
H       3.40       4.46       0.92
C       2.24       5.61       4.44
H       3.05       3.72       5.12
H       3.76       2.98       2.87
C       2.80       5.97       8.09
C       3.11       6.02       6.73
C       3.03       4.75       1.89
C       2.85       4.35       4.27
H       4.13       5.89       6.39
H      -0.55       6.45       7.91
H       1.45       7.33       3.41
C       3.26       3.93       3.00
C       3.88       6.00       9.08
H       0.91       7.04      10.86
H       0.32       3.43      13.10
H       0.45       5.91      13.00
C       0.36       7.90       5.78
C       0.84       6.62       6.27
C       1.45       5.89       8.48
C       0.46       6.27       7.57
C       1.06       5.22       9.73
C       0.99       3.82       9.78
C       0.72       3.17      11.00
C       0.53       3.93      12.16
C       0.60       5.32      12.10
C       0.83       5.97      10.89
O       3.67       6.47      10.29
O       5.06       5.58       8.74
O       0.92       9.00       6.23
O      -0.66       7.95       4.97
H       2.09       6.55       1.17
H       1.15       3.23       8.89
H       0.67       2.09      11.04
