27

Cd      -1.81       1.46       3.73
Cd      -4.23      -1.27       2.81
H      -1.57      -1.17       2.41
H      -1.58      -1.19       4.13
C      -7.45      -1.54       3.08
C      -6.76      -1.41       0.87
C      -4.21      -4.57       2.59
C      -4.15      -3.84       4.80
C      -1.93       4.69       3.46
C      -1.98       3.99       5.68
C       1.47       1.84       3.95
C       0.75       1.69       1.75
C      -3.39       1.41       1.08
C      -1.08      -0.39       6.31
C      -4.37       0.30       5.47
C      -2.30      -1.77       0.23
N      -6.46      -1.44       2.18
N      -4.20      -3.56       3.48
N      -1.91       3.69       4.37
N       0.47       1.71       3.06
O      -2.29       1.87       1.51
O      -4.30       0.84       1.75
O      -1.10       0.82       5.92
O      -4.71      -0.85       5.03
O      -3.92       1.27       4.79
O      -3.51      -1.90       0.62
O      -2.00      -0.81       3.27
