16

V       1.61      18.85      15.36
C       3.57      18.32      13.02
V       5.08      19.14      15.50
O       2.40      18.39      13.58
C       3.54      16.65      16.34
O       1.22      20.72      14.70
C       0.07      19.68      17.84
O       2.37      17.13      16.09
C       0.10      21.35      14.52
O       1.18      19.45      17.23
O       4.66      17.27      16.17
O       4.69      18.54      13.64
O       3.52      19.76      15.80
O      -1.11      19.60      17.29
O      -1.07      20.86      14.77
O       0.05      18.23      15.06
