14

Mn       3.59      13.59      20.76
O       2.16      13.44      22.41
Mn       0.40      14.51      21.13
O       0.13      12.68      22.50
C       5.57      15.60      22.62
O       2.31      15.33      20.39
C       1.76      16.10      19.50
O       0.54      16.20      19.44
O       5.12      14.88      21.69
C       1.09      12.22      19.29
C       1.34      12.62      22.86
O      -0.21      15.84      22.70
O       0.24      13.12      19.53
O       2.27      12.22      19.72
