156

Ni       3.31       3.27      22.80
Ni       7.52       7.51       7.60
Ni       2.16       8.68      30.39
Ni       8.67       2.15      15.20
H       0.07       2.26      18.73
H       0.44       8.90      17.61
H       2.76      10.45      20.89
H       3.39       7.19      20.73
H      10.75       8.54       3.52
H      10.36       1.90       2.40
H       8.05       0.34       5.69
H       7.41       3.61       5.53
H       3.15       5.47      26.33
H       7.31       5.82      25.20
H       5.76       8.15      28.47
H       9.02       8.78      28.32
H       7.66       5.35      11.12
H       3.49       4.96      10.00
H       5.07       2.66      13.28
H       1.80       2.00      13.12
H       5.46       3.16      19.28
H       5.84       7.32      20.41
H       8.15       5.77      17.13
H       8.78       9.02      17.27
H       5.35       7.65       4.05
H       4.97       3.50       5.19
H       2.65       5.06       1.91
H       2.02       1.78       2.08
H       8.52      10.75      11.67
H       1.92      10.38      12.79
H       0.36       8.07       9.52
H       3.62       7.43       9.67
H       2.28       0.05      26.88
H       8.89       0.45      28.00
H      10.47       2.74      24.71
H       7.20       3.39      24.87
C       1.44       1.07      19.90
C       0.51       1.28      18.87
C       0.14       0.21      18.04
C       0.72       9.74      18.24
C       1.66       9.55      19.25
C       2.03      10.61      20.09
C       1.82       2.18      20.82
C       9.90       0.43      16.96
C       2.25       8.20      19.50
C       9.38       9.72       4.71
C      10.30       9.52       3.68
C      10.66      10.59       2.84
C      10.08       1.06       3.04
C       9.14       1.25       4.06
C       8.78       0.18       4.90
C       8.99       8.62       5.64
C       0.90      10.37       1.76
C       8.55       2.60       4.30
C       4.34       6.84      27.49
C       4.13       5.91      26.47
C       5.20       5.54      25.64
C       6.47       6.10      25.83
C       6.66       7.05      26.85
C       5.60       7.42      27.68
C       3.24       7.24      28.41
C       4.99       4.52      24.57
C       8.02       7.64      27.08
C       6.47       3.98      12.30
C       6.67       4.90      11.27
C       5.60       5.25      10.44
C       4.33       4.69      10.63
C       4.15       3.74      11.65
C       5.21       3.39      12.49
C       7.58       3.61      13.23
C       5.82       6.27       9.35
C       2.80       3.14      11.88
C       6.84       4.35      18.11
C       5.91       4.14      19.13
C       5.55       5.21      19.97
C       6.12       6.48      19.78
C       7.06       6.67      18.76
C       7.42       5.61      17.92
C       7.24       3.23      17.20
C       4.54       4.98      21.05
C       7.64       8.03      18.52
C       3.96       6.46       2.89
C       4.90       6.67       3.91
C       5.27       5.61       4.74
C       4.69       4.34       4.56
C       3.75       4.15       3.54
C       3.38       5.20       2.70
C       3.57       7.58       1.98
C       6.29       5.83       5.81
C       3.16       2.79       3.32
C       9.71       9.37      10.50
C       9.51      10.31      11.52
C      10.58      10.68      12.35
C       1.08      10.10      12.16
C       1.27       9.16      11.14
C       0.20       8.79      10.31
C       8.59       8.99       9.59
C      10.35       0.90      13.42
C       2.62       8.57      10.90
C       1.10       1.43      25.70
C       1.30       0.50      26.73
C       0.23       0.14      27.56
C       9.73       0.72      27.36
C       9.55       1.66      26.35
C      10.62       2.02      25.51
C       2.22       1.80      24.78
C       0.46       9.93      28.64
C       8.20       2.25      26.11
O       2.82       1.91      21.63
O       1.24       3.28      20.82
O       9.93       1.64      16.47
O       9.11      10.34      16.57
O       1.90       7.21      18.84
O       3.13       8.16      20.48
O       8.03       8.91       6.48
O       9.54       7.50       5.61
O       0.88       9.17       1.28
O       1.68       0.47       1.36
O       8.90       3.59       3.63
O       7.67       2.64       5.28
O       3.53       8.20      29.24
O       2.11       6.70      28.39
O       3.79       4.55      24.06
O       5.88       3.72      24.19
O       9.00       7.30      26.41
O       8.05       8.52      28.06
O       7.29       2.65      14.07
O       8.69       4.16      13.19
O       7.01       6.20       8.83
O       4.95       7.09       8.99
O       1.81       3.48      11.21
O       2.77       2.24      12.86
O       8.18       3.53      16.34
O       6.70       2.10      17.23
O       4.60       3.78      21.55
O       3.73       5.85      21.41
O       7.28       9.01      19.18
O       8.55       8.06      17.55
O       2.62       7.29       1.13
O       4.10       8.71       2.02
O       6.27       7.03       6.29
O       7.07       4.93       6.21
O       3.51       1.81       3.98
O       2.25       2.75       2.35
O       8.84       7.98       8.81
O       7.49       9.59       9.59
O       9.15       0.88      13.92
O       0.48       1.70      13.80
O       3.60       8.92      11.57
O       2.65       7.68       9.92
O       1.94       2.78      23.95
O       3.32       1.22      24.79
O       1.66       9.96      29.13
O      10.34       9.13      29.01
O       7.22       1.90      26.77
O       8.17       3.13      25.12
