28

H       4.71      11.37       9.65
C       2.47      11.64      11.16
C       3.86       8.11       5.91
H       5.18       5.06       6.62
O       5.09       5.94       1.80
C       4.62       6.97       2.38
C       4.07       6.95       8.15
C       2.11       9.29      10.38
H       5.38       5.01       4.11
O       4.22       8.04       1.79
C       2.51       8.16       9.68
O       1.24      11.67      11.49
H       3.63       8.93       3.92
C       4.30       7.01       6.67
C       3.68       8.19       8.89
O       3.33      12.55      11.42
C       4.86       5.90       6.02
H       3.42       8.97       6.41
C       4.45       9.36       8.86
H       1.18       9.30      10.94
C       4.97       5.88       4.63
H       1.92       7.25       9.72
O       4.15       5.88       8.76
C       4.10      10.47       9.64
C       4.52       6.97       3.87
H       5.36       9.40       8.25
C       2.91      10.44      10.38
C       3.97       8.09       4.52
