28

C       4.79       0.65      17.99
C       6.22      -2.84      23.17
H       3.99      -2.62      21.67
H       3.18       3.57      18.69
C       3.97       1.72      14.46
O       3.44       2.73      13.89
H       2.99       3.58      16.17
O       4.44       0.69      13.88
C       4.48       1.81      20.22
C       6.50      -0.45      22.47
C       4.25       1.71      18.74
H       5.11      -0.14      16.00
C       6.07       0.67      21.77
O       7.45      -2.85      23.52
C       3.59       2.76      18.09
H       5.32      -0.15      18.50
C       4.92       0.60      20.97
O       5.37      -3.76      23.39
C       3.48       2.77      16.70
C       4.18      -0.60      20.91
H       7.42      -0.43      23.04
C       4.04       1.72      15.95
O       4.37       2.90      20.80
C       4.56      -1.70      21.68
H       6.63       1.60      21.82
C       4.68       0.66      16.60
H       3.29      -0.66      20.29
C       5.74      -1.63      22.44
