28

H       4.74       6.13      14.21
C       2.41       5.89      12.85
C       3.95       9.34      17.93
C       4.72      10.36      21.49
O       5.24      11.37      22.07
H       5.50      12.31      17.31
C       4.26      10.54      15.73
C       2.16       8.27      13.58
H       5.66      12.27      19.83
O       4.25       9.32      22.07
C       2.62       9.40      14.25
O       1.16       5.88      12.61
C       4.47      10.43      17.20
H       3.63       8.50      19.90
C       3.82       9.33      14.98
O       3.24       4.98      12.54
C       5.11      11.48      17.89
H       3.45       8.54      17.40
C       4.57       8.15      14.99
H       1.20       8.27      13.07
C       5.21      11.45      19.28
H       2.05      10.33      14.23
C       4.15       7.04      14.24
O       4.40      11.62      15.15
C       4.67      10.37      20.00
H       5.49       8.10      15.56
C       2.93       7.10      13.56
C       4.05       9.32      19.32
