28

C      12.44       0.69       5.97
H      13.42      -2.54       2.13
C      11.09      -2.87       0.81
O      13.92       2.70      10.06
H      14.21       3.50       5.25
C      13.38       1.70       9.49
H      14.45       3.49       7.77
O      12.91       0.67      10.08
C      12.79       1.80       3.75
C      10.69      -0.55       1.65
C      13.03       1.71       5.21
H      12.09      -0.09       7.97
C      11.11       0.59       2.34
O       9.85      -2.93       0.52
H      11.86      -0.09       5.47
C      13.76       2.72       5.86
C      12.33       0.57       3.02
O      11.97      -3.75       0.53
C      13.89       2.72       7.25
H       9.72      -0.59       1.17
C      13.16      -0.57       2.97
C      13.27       1.71       8.00
O      12.93       2.85       3.13
H      10.48       1.48       2.37
C      12.78      -1.67       2.21
H      14.10      -0.57       3.51
C      12.55       0.69       7.36
C      11.54      -1.67       1.56
