98

C      19.58      -2.37      13.22
C      18.96      -1.67      12.19
C      17.66      -2.03      11.78
C      17.01      -3.10      12.41
C      17.63      -3.79      13.44
C      16.98      -1.27      10.70
C      23.24      -6.72      19.86
C      24.69      -6.63      20.06
C      25.44      -5.83      19.10
C      24.86      -5.17      18.05
C      23.41      -5.29      17.84
C      22.63      -6.08      18.77
C      22.76      -4.69      16.77
C      21.37      -4.81      16.54
C      20.61      -5.60      17.46
C      21.22      -6.20      18.53
C      25.64      -4.32      17.15
C      26.95      -4.46      16.87
C      20.80      -4.11      15.41
C      19.51      -4.20      14.97
H      17.74     -10.56      24.91
H      16.41     -11.94      26.47
H      19.39     -15.02      26.34
H      20.74     -13.65      24.76
H      17.81      -4.84      27.18
H      16.57      -3.71      29.00
H      19.09      -0.26      28.63
H      20.34      -1.36      26.78
H      21.47     -10.76      21.40
H      19.85      -7.59      24.65
H      21.45      -3.80      23.38
H      22.54      -4.90      21.48
H      19.27      -9.35      24.06
H      21.05     -11.76      23.40
H      19.20      -5.75      25.83
H      20.63      -3.09      25.25
H      26.29      -2.00      15.80
H      27.67      -0.66      14.23
H      30.76      -3.64      14.36
H      29.39      -4.99      15.94
H      20.58      -2.07      13.53
H      19.45      -0.83      11.71
H      16.00      -3.36      12.08
H      17.10      -4.61      13.93
H      26.50      -5.73      19.31
H      23.33      -4.11      16.05
H      19.54      -5.71      17.32
H      20.64      -6.80      19.22
H      25.09      -3.52      16.65
H      27.50      -5.30      17.30
H      21.49      -3.46      14.88
H      18.83      -4.89      15.46
O      15.88     -13.89      27.83
O      17.53     -15.47      27.89
O      17.44      -0.10      30.39
O      15.96      -1.84      30.47
O      22.92      -9.50      19.66
O      29.62      -0.13      12.87
O      31.21      -1.78      12.82
O      15.84      -1.71      10.32
O      17.57      -0.23      10.23
O      25.24      -7.17      21.05
C      19.36     -11.99      24.73
C      18.12     -11.53      25.22
C      17.36     -12.30      26.10
C      17.82     -13.56      26.51
C      19.04     -14.05      26.02
C      19.79     -13.27      25.14
C      17.02     -14.37      27.48
C      19.18      -3.19      26.84
C      18.11      -3.84      27.49
C      17.41      -3.22      28.51
C      17.76      -1.92      28.93
C      18.83      -1.27      28.30
C      19.52      -1.89      27.27
C      17.00      -1.24      30.01
C      22.46      -7.50      20.84
C      22.37      -8.95      20.65
C      21.57      -9.70      21.60
C      20.91      -9.12      22.66
C      21.04      -7.67      22.86
C      21.82      -6.89      21.94
C      20.43      -7.02      23.94
C      20.55      -5.63      24.16
C      21.33      -4.87      23.25
C      21.94      -5.48      22.18
C      20.07      -9.90      23.56
C      20.21     -11.22      23.84
C      19.85      -5.06      25.29
C      19.93      -3.77      25.74
C      27.73      -3.61      15.98
C      27.26      -2.37      15.48
C      28.03      -1.62      14.61
C      29.30      -2.07      14.19
C      29.78      -3.29      14.69
C      29.01      -4.04      15.57
C      30.10      -1.27      13.23
C      18.93      -3.45      13.87
