600

Sc       5.97      30.72      25.53
Sc       5.97      26.18      13.89
Sc       5.97      38.54      15.75
Sc       2.59      30.74      25.52
Sc       2.60      26.18      13.88
Sc       2.60      38.54      15.75
Sc      11.15      22.61      11.83
Sc      11.14      14.84       2.05
Sc      11.15      10.26      13.70
Sc      14.52      22.62      11.82
Sc      14.52      14.83       2.05
Sc      14.52      10.27      13.70
Sc       4.28      30.18      22.63
Sc       4.28      28.97      14.85
Sc       4.28      36.31      17.68
Sc      12.83      20.38       9.90
Sc      12.83      14.28       4.95
Sc      12.83      13.05      12.73
H      10.68      36.82      17.64
H      10.96      26.56      24.16
H      10.67      35.35      18.88
H       9.13      33.46      18.94
H      10.70      38.95      16.45
H       8.90      27.65      25.00
H      10.68      25.07      19.90
H       7.33      27.78      21.00
H       7.08      32.61      20.07
H       9.41      26.76      20.15
H       9.24      32.37      23.78
H      11.28      33.18      22.66
H      10.68      24.18      18.20
H      10.71      23.20      15.95
H      10.67      29.96      23.07
H      10.96      29.45      10.95
H      10.67      29.63      21.19
H       9.13      30.52      19.54
H      10.66      29.91      25.51
H       8.90      28.18      11.48
H      10.68      33.88      11.79
H       7.32      31.58      13.58
H       7.08      29.96      18.24
H       9.40      32.83      13.13
H       9.24      26.86      16.17
H      11.28      27.43      17.43
H      10.67      35.78      11.86
H      10.68      38.22      12.12
H      10.66      28.69      14.43
H      10.96      39.44      20.05
H      10.67      30.48      15.09
H       9.13      31.47      16.69
H      10.65      26.59      13.18
H       8.90      39.61      18.68
H      10.68      36.50      23.47
H       7.32      36.10      20.57
H       7.08      32.87      16.85
H       9.40      35.86      21.88
H       9.24      36.21      15.20
H      11.28      34.84      15.06
H      10.68      35.47      25.09
H      10.70      34.02      27.06
H      15.00      36.80      17.65
H      14.71      26.57      24.16
H      14.99      35.34      18.88
H      16.54      33.46      18.94
H      15.01      38.93      16.46
H      16.77      27.65      24.99
H      14.98      25.07      19.91
H       1.24      27.77      20.99
H       1.48      32.61      20.07
H      16.25      26.76      20.14
H      16.43      32.37      23.78
H      14.38      33.18      22.66
H      15.00      24.18      18.23
H      15.00      23.21      15.98
H      14.99      29.96      23.10
H      14.70      29.45      10.95
H      15.00      29.63      21.20
H      16.54      30.51      19.54
H      14.96      29.91      25.54
H      16.76      28.17      11.48
H      14.99      33.88      11.78
H       1.24      31.58      13.58
H       1.48      29.96      18.24
H      16.27      32.83      13.13
H      16.43      26.87      16.17
H      14.39      27.43      17.43
H      14.99      35.79      11.86
H      14.98      38.22      12.13
H      14.98      28.66      14.41
H      14.71      39.44      20.05
H      14.99      30.47      15.09
H      16.54      31.47      16.68
H      14.95      26.57      13.16
H      16.77      39.62      18.68
H      14.99      36.50      23.47
H       1.24      36.10      20.57
H       1.48      32.87      16.85
H      16.27      35.86      21.88
H      16.43      36.21      15.20
H      14.39      34.83      15.06
H      15.00      35.48      25.07
H      15.00      34.03      27.05
H       6.44      12.77      13.15
H       6.16      23.53       7.54
H       6.44      14.56      12.49
H       7.98      15.56      10.89
H       6.43      10.67      14.40
H       8.22      23.70       8.90
H       6.43      20.60       4.11
H       9.78      20.17       6.99
H      10.03      16.96      10.72
H       7.70      19.95       5.69
H       7.87      20.30      12.38
H       5.83      18.92      12.52
H       6.44      19.59       2.50
H       6.44      18.13       0.53
H       6.45      20.89       9.93
H       6.15      10.66       3.42
H       6.44      19.43       8.71
H       7.98      17.55       8.64
H       6.45      23.03      11.12
H       8.21      11.76       2.59
H       6.43       9.16       7.68
H       9.79      11.87       6.58
H      10.03      16.71       7.51
H       7.71      10.86       7.44
H       7.87      16.47       3.79
H       5.83      17.28       4.91
H       6.43       8.28       9.36
H       6.43       7.29      11.61
H       6.43      14.06       4.48
H       6.15      13.53      16.63
H       6.44      13.72       6.38
H       7.98      14.61       8.05
H       6.40      14.02       2.04
H       8.21      12.26      16.10
H       6.43      17.96      15.80
H       9.79      15.66      14.00
H      10.03      14.05       9.34
H       7.71      16.91      14.45
H       7.88      10.95      11.41
H       5.83      11.52      10.14
H       6.44      19.88      15.72
H       6.42      22.31      15.44
H       2.12      12.76      13.15
H       2.41      23.53       7.54
H       2.12      14.56      12.49
H       0.58      15.56      10.90
H       2.13      10.67      14.41
H       0.34      23.71       8.90
H       2.12      20.60       4.10
H      15.88      20.18       7.00
H      15.63      16.96      10.73
H       0.85      19.96       5.69
H       0.68      20.30      12.37
H       2.73      18.92      12.52
H       2.12      19.58       2.49
H       2.15      18.12       0.51
H       2.13      20.92       9.94
H       2.41      10.66       3.42
H       2.12      19.43       8.71
H       0.58      17.55       8.64
H       2.15      23.05      11.13
H       0.35      11.75       2.58
H       2.12       9.16       7.67
H      15.87      11.87       6.57
H      15.63      16.71       7.51
H       0.84      10.86       7.43
H       0.68      16.47       3.79
H       2.73      17.28       4.91
H       2.11       8.28       9.36
H       2.12       7.29      11.61
H       2.11      14.06       4.51
H       2.41      13.53      16.63
H       2.12      13.72       6.39
H       0.58      14.61       8.05
H       2.10      14.02       2.07
H       0.34      12.26      16.10
H       2.13      17.96      15.80
H      15.87      15.66      14.00
H      15.63      14.05       9.34
H       0.85      16.91      14.45
H       0.68      10.95      11.41
H       2.73      11.52      10.15
H       2.12      19.86      15.72
H       2.12      22.30      15.45
H      12.83      32.47      21.21
H      12.83      27.06      23.03
H      12.83      29.04      17.55
H      12.83      30.18      11.94
H      12.84      33.93      16.40
H      12.83      38.21      20.19
H       4.28      18.02      11.17
H       4.28      22.31       7.39
H       4.28      16.57       6.37
H       4.28      11.15       4.55
H       4.28      13.13      10.03
H       4.28      14.26      15.63
C      11.61      33.86      20.09
C      10.36      33.38      20.71
C       8.02      32.43      22.00
C      11.64      37.27      17.40
C      10.34      26.57      22.09
C      10.17      26.83      23.47
C      11.62      34.90      19.16
C       9.15      33.23      20.00
C      11.64      38.48      16.72
C      11.61      26.07      21.54
C       9.01      27.43      23.94
C      11.63      25.34      20.35
C       8.12      27.49      21.69
C       8.00      32.76      20.63
C       9.28      26.91      21.22
C       6.82      28.55      23.55
C       6.84      31.87      22.69
C       9.22      32.60      22.72
C      10.37      33.05      22.09
C       7.98      27.79      23.06
C      11.64      23.98      17.73
C      11.64      23.42      16.46
C      11.61      29.32      19.30
C      10.36      29.02      18.57
C       8.02      28.38      17.11
C      11.62      29.94      23.59
C      10.34      31.24      12.00
C      10.17      29.92      11.53
C      11.62      29.60      20.67
C       9.15      29.71      18.81
C      11.61      29.92      24.98
C      11.61      31.96      11.83
C       9.01      29.20      11.81
C      11.63      33.36      11.80
C       8.11      31.13      12.99
C       8.00      29.40      18.08
C       9.28      31.83      12.72
C       6.82      28.99      12.99
C       6.84      28.05      16.29
C       9.22      27.67      16.90
C      10.37      27.99      17.61
C       7.98      29.79      12.57
C      11.63      36.30      11.91
C      11.62      37.68      12.06
C      11.61      32.28      15.77
C      10.36      33.05      15.87
C       8.02      34.64      16.04
C      11.61      28.24      14.16
C      10.34      37.64      21.07
C      10.17      38.70      20.17
C      11.62      30.94      15.33
C       9.15      32.51      16.35
C      11.60      27.05      13.45
C      11.62      37.42      21.78
C       9.02      38.81      19.40
C      11.64      36.75      23.01
C       8.12      36.83      20.48
C       8.00      33.29      16.45
C       9.28      36.72      21.22
C       6.82      37.91      18.63
C       6.84      35.52      16.17
C       9.22      35.18      15.53
C      10.37      34.40      15.46
C       7.98      37.87      19.54
C      11.63      35.17      25.50
C      11.64      34.35      26.62
C      14.05      33.85      20.09
C      15.31      33.37      20.71
C       0.54      32.43      22.00
C      14.05      37.26      17.40
C      15.33      26.57      22.09
C      15.50      26.83      23.46
C      14.04      34.90      19.16
C      16.51      33.23      20.00
C      14.06      38.46      16.72
C      14.05      26.07      21.55
C      16.66      27.43      23.94
C      14.03      25.34      20.35
C       0.45      27.49      21.68
C       0.56      32.76      20.63
C      16.38      26.90      21.21
C       1.74      28.56      23.53
C       1.72      31.88      22.70
C      16.45      32.60      22.72
C      15.30      33.05      22.09
C       0.59      27.79      23.05
C      14.05      23.98      17.75
C      14.06      23.42      16.48
C      14.06      29.32      19.30
C      15.31      29.02      18.58
C       0.54      28.38      17.11
C      14.03      29.94      23.60
C      15.33      31.24      12.00
C      15.50      29.92      11.53
C      14.04      29.60      20.67
C      16.51      29.71      18.81
C      14.02      29.92      24.99
C      14.05      31.96      11.83
C      16.65      29.20      11.81
C      14.04      33.36      11.80
C       0.45      31.12      12.99
C       0.56      29.40      18.08
C      16.39      31.83      12.72
C       1.74      28.98      12.98
C       1.72      28.07      16.28
C      16.45      27.67      16.90
C      15.30      27.99      17.61
C       0.58      29.79      12.56
C      14.04      36.30      11.92
C      14.04      37.68      12.07
C      14.06      32.27      15.76
C      15.31      33.05      15.87
C       0.54      34.64      16.04
C      14.02      28.23      14.15
C      15.33      37.64      21.07
C      15.50      38.70      20.17
C      14.04      30.94      15.33
C      16.52      32.50      16.35
C      14.02      27.04      13.44
C      14.05      37.42      21.78
C      16.65      38.81      19.40
C      14.04      36.75      23.01
C       0.45      36.83      20.47
C       0.56      33.29      16.45
C      16.39      36.72      21.22
C       1.75      37.91      18.63
C       1.72      35.52      16.18
C      16.45      35.17      15.53
C      15.30      34.40      15.46
C       0.59      37.87      19.53
C      14.05      35.17      25.49
C      14.06      34.36      26.61
C       5.50      16.36      11.81
C       6.75      17.14      11.71
C       9.09      18.72      11.54
C       5.48      12.33      13.42
C       6.77      21.73       6.51
C       6.95      22.79       7.42
C       5.49      15.03      12.25
C       7.96      16.59      11.23
C       5.49      11.13      14.13
C       5.50      21.52       5.80
C       8.11      22.90       8.18
C       5.48      20.85       4.56
C       8.99      20.91       7.09
C       9.11      17.37      11.13
C       7.83      20.81       6.35
C      10.29      21.97       8.95
C      10.27      19.60      11.42
C       7.89      19.26      12.05
C       6.74      18.49      12.12
C       9.13      21.94       8.04
C       5.49      19.28       2.09
C       5.50      18.46       0.97
C       5.50      17.95       7.49
C       6.75      17.47       6.86
C       9.09      16.53       5.57
C       5.49      21.35      10.18
C       6.77      10.67       5.49
C       6.94      10.93       4.12
C       5.49      18.99       8.42
C       7.96      17.33       7.57
C       5.51      22.56      10.86
C       5.50      10.17       6.04
C       8.10      11.53       3.65
C       5.48       9.43       7.23
C       9.00      11.59       5.90
C       9.11      16.85       6.94
C       7.83      11.00       6.37
C      10.29      12.66       4.05
C      10.27      15.98       4.87
C       7.89      16.70       4.85
C       6.74      17.15       5.49
C       9.13      11.89       4.53
C       5.48       8.07       9.84
C       5.49       7.51      11.10
C       5.50      13.41       8.27
C       6.75      13.11       9.00
C       9.09      12.47      10.46
C       5.47      14.04       3.97
C       6.77      15.32      15.58
C       6.94      14.00      16.05
C       5.49      13.70       6.90
C       7.96      13.80       8.77
C       5.46      14.03       2.58
C       5.50      16.04      15.75
C       8.10      13.29      15.76
C       5.48      17.44      15.79
C       9.00      15.20      14.59
C       9.11      13.49       9.50
C       7.83      15.91      14.86
C      10.29      13.06      14.60
C      10.27      12.14      11.30
C       7.89      11.76      10.67
C       6.75      12.08       9.97
C       9.13      13.87      15.01
C       5.48      20.38      15.66
C       5.48      21.76      15.51
C       3.06      16.36      11.82
C       1.81      17.14      11.71
C      16.57      18.72      11.53
C       3.08      12.33      13.42
C       1.78      21.73       6.51
C       1.62      22.80       7.42
C       3.07      15.03      12.25
C       0.60      16.59      11.23
C       3.08      11.13      14.13
C       3.06      21.52       5.80
C       0.46      22.90       8.18
C       3.08      20.85       4.56
C      16.67      20.92       7.10
C      16.55      17.38      11.13
C       0.73      20.81       6.35
C      15.37      21.99       8.95
C      15.39      19.60      11.39
C       0.67      19.27      12.04
C       1.81      18.49      12.12
C      16.53      21.96       8.04
C       3.08      19.27       2.08
C       3.09      18.45       0.96
C       3.06      17.95       7.49
C       1.80      17.47       6.86
C      16.57      16.53       5.58
C       3.09      21.36      10.18
C       1.78      10.67       5.49
C       1.62      10.93       4.12
C       3.07      18.99       8.42
C       0.60      17.33       7.58
C       3.09      22.57      10.86
C       3.06      10.17       6.03
C       0.46      11.53       3.64
C       3.08       9.44       7.23
C      16.66      11.59       5.89
C      16.55      16.85       6.95
C       0.73      11.00       6.36
C      15.37      12.65       4.03
C      15.39      15.97       4.89
C       0.66      16.70       4.86
C       1.81      17.15       5.49
C      16.53      11.89       4.52
C       3.07       8.07       9.84
C       3.06       7.51      11.10
C       3.06      13.41       8.28
C       1.81      13.11       9.00
C      16.57      12.47      10.46
C       3.06      14.04       3.99
C       1.78      15.32      15.58
C       1.62      14.00      16.05
C       3.07      13.70       6.91
C       0.60      13.80       8.77
C       3.05      14.03       2.60
C       3.06      16.04      15.75
C       0.46      13.29      15.77
C       3.08      17.44      15.79
C      16.66      15.21      14.59
C      16.55      13.49       9.50
C       0.73      15.91      14.86
C      15.37      13.07      14.60
C      15.39      12.15      11.29
C       0.66      11.76      10.68
C       1.81      12.08       9.97
C      16.53      13.87      15.02
C       3.07      20.38      15.66
C       3.06      21.76      15.51
C      12.83      33.32      20.53
C      12.85      23.15      15.81
C      12.86      22.67      14.42
C      12.87      40.39      15.67
C      12.84      36.64      17.80
C      12.84      24.29      18.41
C      12.83      26.42      22.15
C      12.83      24.97      19.72
C      12.83      35.45      18.68
C      12.86      39.11      16.39
C      12.83      29.21      18.62
C      12.83      38.39      12.16
C      12.82       7.99      12.44
C      12.80      29.87      27.18
C      12.83      29.91      22.86
C      12.83      35.56      11.86
C      12.83      31.26      11.83
C      12.83      34.09      11.79
C      12.83      29.75      21.38
C      12.81      29.89      25.71
C      12.84      32.92      16.01
C      12.85      33.91      27.18
C      12.86      17.06       0.71
C      12.80      25.17      12.31
C      12.82      28.90      14.49
C      12.84      35.59      24.89
C      12.83      37.77      21.18
C      12.84      36.39      23.65
C      12.83      30.25      15.09
C      12.80      26.44      13.06
C       4.28      17.01      11.57
C       4.30      18.02       0.40
C       4.31      32.95      26.87
C       4.29       9.26      15.27
C       4.28      12.99      13.08
C       4.28      19.70       2.69
C       4.28      21.86       6.40
C       4.28      20.50       3.93
C       4.28      14.34      12.48
C       4.28      10.52      14.52
C       4.28      17.42       7.05
C       4.27       7.24      11.77
C       4.28      38.59      13.15
C       4.31      24.49      11.91
C       4.29      20.73       9.78
C       4.27       8.39       9.17
C       4.28      10.52       5.43
C       4.28       9.06       7.86
C       4.28      19.54       8.90
C       4.30      23.21      11.19
C       4.28      13.29       8.96
C       4.27      22.47      15.41
C       4.26      23.91      15.13
C       4.25      13.98       0.40
C       4.27      14.00       4.72
C       4.28      19.65      15.72
C       4.28      15.34      15.74
C       4.28      18.17      15.79
C       4.28      13.84       6.19
C       4.25      13.99       1.87
O       6.93      31.70      23.97
O      11.74      22.49      13.82
O       5.79      31.55      22.03
O      11.74       9.11      15.34
O       5.84      28.80      22.74
O       6.85      28.99      24.76
O       6.93      27.03      15.51
O      11.69       8.59      12.59
O       5.79      28.79      16.33
O      11.67      13.99       0.23
O       5.84      29.57      13.60
O       6.85      27.72      12.77
O       6.93      36.71      15.67
O      11.73      16.63       1.17
O       5.79      35.11      16.79
O      11.67      24.62      12.00
O       5.84      37.10      18.83
O       6.85      38.73      17.64
O       1.64      31.73      23.98
O      14.00      22.49      13.83
O       2.78      31.56      22.04
O      13.99       9.10      15.34
O       2.72      28.80      22.73
O       1.71      29.01      24.74
O       1.64      27.04      15.50
O      13.95       8.60      12.59
O       2.78      28.81      16.34
O      13.92      13.99       0.24
O       2.72      29.56      13.59
O       1.71      27.71      12.76
O       1.64      36.70      15.69
O      13.99      16.64       1.16
O       2.77      35.10      16.80
O      13.92      24.62      12.01
O       2.73      37.10      18.83
O       1.71      38.74      17.63
O      10.19      20.78      11.93
O       5.45      32.53      26.42
O      11.33      19.19      10.80
O       5.43      40.54      15.57
O      11.27      21.15       8.74
O      10.26      22.78       9.95
O      10.18      15.83       3.59
O       5.41      38.42      13.75
O      11.33      15.65       5.53
O       5.44      25.02      12.24
O      11.27      12.89       4.85
O      10.26      13.11       2.84
O      10.18      11.12      12.08
O       5.39      24.52      14.99
O      11.32      12.88      11.25
O       5.38      29.89      27.35
O      11.28      13.64      13.99
O      10.26      11.79      14.82
O      15.48      20.79      11.89
O       3.19      32.52      26.40
O      14.34      19.18      10.78
O       3.17      40.53      15.57
O      14.39      21.18       8.76
O      15.40      22.82       9.94
O      15.48      15.80       3.61
O       3.14      38.41      13.74
O      14.34      15.64       5.56
O       3.19      25.03      12.24
O      14.38      12.89       4.83
O      15.40      13.10       2.82
O      15.48      11.12      12.07
O       3.13      24.51      14.99
O      14.34      12.88      11.24
O       3.12      29.88      27.35
O      14.39      13.64      13.99
O      15.40      11.80      14.81
O       4.28      30.52      24.55
O       4.28      27.14      14.19
O       4.28      37.80      16.43
O      12.83      21.88      11.15
O      12.83      14.62       3.03
O      12.83      11.21      13.40
