37

C       2.74      17.84       9.49
C       3.24      17.56       8.21
C       2.78      18.28       7.10
C       1.86      19.31       7.31
C       1.31      20.24       6.26
C       0.05      22.25       5.98
C      -0.44      22.00       4.68
C      -0.96      23.04       3.90
C      -0.99      24.35       4.39
C      -0.52      24.60       5.68
C      -0.02      23.57       6.48
H      -1.28      18.41      11.99
H      -3.01      18.85      13.69
H      -3.46      21.18      14.46
N       0.19      20.22      10.71
H      -0.45      22.62      11.74
H      -2.19      23.06      13.44
N       1.41      19.55       8.55
H       3.07      17.30      10.38
H       3.98      16.77       8.08
H       3.14      18.06       6.10
N       0.57      21.24       6.81
H      -0.40      20.99       4.30
H       0.31      23.76       7.49
H      -1.34      22.82       2.91
H      -1.39      25.16       3.79
H      -0.58      25.61       6.10
O       1.39      18.62      11.96
O       1.59      20.04       5.05
C      -0.76      20.48      11.72
C      -1.49      19.43      12.30
C      -2.46      19.68      13.27
C      -2.71      20.99      13.69
C      -2.00      22.04      13.11
C      -1.04      21.80      12.13
C       1.10      19.24      10.90
C       1.80      18.86       9.62
