37

C       2.93      11.79      13.30
C       2.34      10.94      12.36
C       1.81       9.71      12.75
C       0.58       7.95      15.61
C       0.12       6.54      15.89
C      -0.75       6.13      16.90
C      -1.03       4.76      17.01
C      -0.43       3.83      16.16
C       0.42       4.32      15.16
C       1.14       3.50      14.13
C       2.22       3.69      11.99
C       1.91       4.19      10.71
C       2.51       3.63       9.58
C       3.44       2.60       9.70
C       3.78       2.13      10.97
C       3.17       2.66      12.10
N       1.29       8.05      14.46
N       0.63       5.63      15.05
N       1.58       4.27      13.10
O       0.29       8.86      16.42
O       1.25       2.26      14.31
H      -1.21       6.86      17.56
H      -1.73       4.42      17.77
H      -0.64       2.77      16.23
H       2.46       9.87      16.08
H       3.44      12.04      15.38
H       3.36      12.74      13.00
H       2.28      11.24      11.32
H       1.37       9.05      12.01
H       1.19       5.00      10.61
H       2.25       4.01       8.59
H       3.88       2.15       8.80
H       4.52       1.34      11.09
H       3.43       2.29      13.09
C       1.83       9.31      14.10
C       2.43      10.17      15.04
C       2.97      11.39      14.64
