37

N       4.18      18.53       0.02
N       2.97      19.22      -2.14
N       3.80      17.52      -3.88
C       5.13      18.26       1.02
C       5.86      19.31       1.60
C       6.83      19.06       2.57
C       7.08      17.75       3.00
C       6.37      16.70       2.42
C       5.41      16.94       1.43
C       3.27      19.51       0.22
C       2.58      19.91      -1.06
C       1.63      20.92      -1.19
C       1.14      21.20      -2.47
H       5.66      20.33       1.29
H       7.38      19.89       3.00
H       7.82      17.56       3.77
H       6.55      15.68       2.75
H       4.82      16.12       1.04
H       1.30      21.46      -0.30
O       2.98      20.11       1.29
C       2.51      19.46      -3.37
H       0.39      21.99      -2.60
C       1.59      20.49      -3.58
H       1.23      20.70      -4.59
C       3.06      18.53      -4.42
O       2.78      18.73      -5.63
C       4.81      16.77      -6.01
C       4.39      15.20      -4.22
H       4.77      17.78      -6.40
H       4.06      15.00      -3.21
H       5.72      15.96      -7.79
H       5.77      13.61      -6.91
H       4.96      13.16      -4.61
C       4.32      16.52      -4.72
C       5.33      15.74      -6.79
C       5.37      14.42      -6.31
C       4.90      14.17      -5.02
