15

H       4.01       2.39      11.66
H      -0.49       2.99      11.64
H       2.74       1.36      13.29
N       1.16       3.50      10.72
O       2.64       4.73       8.84
O       4.52       3.86       9.71
O      -1.06       1.04      13.32
C       0.97       2.08      12.65
C       2.48       3.32      10.74
C       3.09       2.51      11.68
C       0.43       2.88      11.66
C       2.33       1.90      12.65
C       0.09       1.37      13.66
C       3.29       4.03       9.67
O       0.57       1.10      14.78
