15

H       1.56       7.87      12.14
H       6.06       8.48      12.16
H       2.83       6.85      10.51
N       4.41       8.99      13.08
O       2.93      10.22      14.96
C       3.09       8.81      13.06
C       2.48       8.00      12.12
O       1.04       9.35      14.09
C       3.24       7.38      11.15
C       5.14       8.37      12.14
C       2.28       9.52      14.13
C       4.60       7.57      11.15
C       5.48       6.85      10.14
O       6.63       6.53      10.48
O       5.00       6.59       9.02
