15

C       1.23       2.97       3.75
C      -1.43       2.61       3.73
C       0.48       3.59       4.71
C      -1.77       4.12       5.72
C       1.44       1.46       1.74
H       2.15       3.10       3.72
H      -2.35       2.50       3.71
H       0.88       4.12       5.36
N      -0.70       1.98       2.79
O       0.78       0.76       0.91
O       2.67       1.62       1.78
O      -2.91       4.45       5.38
O      -1.28       4.38       6.84
C      -0.89       3.40       4.72
C       0.62       2.16       2.81
