16

N       7.23       3.43       8.91
N       5.85       3.47       8.78
N       6.73       2.70       6.90
N       6.97       2.24       5.62
N       5.60       1.03       1.65
N       6.96       0.84       1.86
N       6.08       1.68       3.71
N       5.84       2.17       4.98
H       8.79       2.82       7.56
H       4.58       2.91       7.14
H       4.06       1.80       2.93
H       8.20       1.24       3.58
C       7.75       2.97       7.79
C       5.56       3.03       7.57
C       5.09       1.53       2.76
C       7.24       1.24       3.10
