16

H       3.59       1.54      18.05
H       7.81       1.45      17.62
H       8.33       2.56      13.41
H       4.18       3.12      14.07
N       5.16       0.93      19.39
N       6.54       0.89      19.26
N       5.65       1.66      17.38
N       5.42       2.12      16.10
N       6.78       3.33      12.14
N       5.42       3.52      12.35
N       6.31       2.68      14.19
N       6.55       2.19      15.46
C       4.64       1.39      18.27
C       6.82       1.33      18.05
C       7.30       2.83      13.24
C       5.15       3.12      13.58
