16

N       5.41       7.57      10.56
N       4.14       8.10      10.66
H       3.43      11.98      10.55
H       1.51       8.17      10.41
H       4.88       5.46      10.42
H       6.80       9.27      10.56
C       2.66      11.23      10.53
C       1.67       9.24      10.48
C       5.65       6.22      10.44
C       6.64       8.20      10.50
N       1.35      11.40      10.67
N       0.73      10.15      10.60
N       2.91       9.87      10.41
N       4.17       9.34      10.31
N       6.96       6.04      10.30
N       7.58       7.29      10.37
