44

Gd       7.95       4.00       7.07
Gd       4.48       4.00       5.25
C       1.77       1.84       4.91
C       0.93       0.83       4.44
C       1.36       0.04       3.37
C       2.62       0.28       2.82
C       3.40       1.31       3.36
C       2.92       5.92       1.79
C       3.36       5.14       2.99
C       7.21       6.04       4.64
H      10.95       2.45       6.57
H      12.46       0.64       7.43
H      11.68      -0.77       9.35
H       9.41      -0.31      10.33
H       8.03       1.53       9.36
C      10.65       1.82       7.41
C       7.55       2.37       4.46
C      11.49       0.81       7.88
C      11.05       0.02       8.95
C       9.02       1.30       8.96
N       9.43       2.07       7.93
C       9.79       0.27       9.49
N       2.98       2.08       4.38
C       9.49       5.93      10.53
C       9.06       5.15       9.34
O       5.99       5.67       4.69
O       8.16       5.49       5.29
O       8.19       4.23       9.52
O       9.52       5.42       8.18
O       6.07       2.84       7.63
O       3.95       2.47       7.04
O       6.44       5.68       7.63
C       4.91       2.33       7.86
O       4.27       5.49       7.03
O       4.23       4.22       2.81
O       2.92       5.43       4.16
H       1.48       2.47       5.76
O       6.39       2.85       4.76
O       8.54       2.53       5.23
H      -0.05       0.67       4.90
H       0.72      -0.74       2.97
H       2.99      -0.30       1.99
H       4.39       1.53       2.96
C       5.22       6.04       7.69
