14

O      28.56      36.69       8.47
C      29.40      35.85       7.99
C      31.09      39.10       7.98
O      29.60      39.33       4.87
O      29.95      39.14       8.54
O      26.91      37.74       6.44
C      27.20      37.07       5.39
O      28.29      40.17       6.55
Cu      28.37      38.46       7.56
O      31.37      38.54       6.86
Cu      29.93      37.64       5.85
O      28.38      36.81       4.96
O      30.14      36.02       6.96
C      28.93      40.27       5.44
