14

Cu      19.83      44.84      25.60
O      19.21      42.07      24.22
O      21.16      45.27      24.20
C      21.84      44.29      27.46
C      21.85      44.29      23.75
O      18.56      44.26      27.00
Cu      20.56      42.50      25.61
O      21.15      45.27      27.01
C      18.49      43.04      23.81
O      21.82      43.08      24.19
O      19.21      42.07      26.99
C      18.49      43.04      27.40
O      21.82      43.08      27.02
O      18.57      44.26      24.21
