20

P       7.99      -2.11      10.81
O       8.20      -0.22       3.84
O       9.76      -2.31       3.88
O       7.17      -2.46       3.59
P       8.44      -1.78       4.23
O       6.50      -3.41       6.07
H       9.91      -1.00      10.89
H       6.73      -3.61       8.61
H       6.49      -2.83       4.18
H       9.74      -0.24       6.43
C       8.18      -2.03       8.97
C       9.11      -1.06       8.31
C       7.40      -2.84       8.21
C       8.27      -1.79       6.06
C       7.35      -2.75       6.73
C       9.05      -0.99       6.83
O       8.23      -3.67      11.20
O       6.65      -1.54      11.16
O       9.24      -1.42      11.48
O       9.94      -0.40       8.96
