20

P       3.92       3.62      11.78
P       4.37       3.34      18.35
O       4.15       1.78      18.79
O       5.72       3.89      18.67
O       3.14       4.08      19.03
O       2.40       4.97      16.50
H       5.86       2.58      11.73
H       2.62       5.12      13.95
H       2.43       4.43      18.41
H       5.63       1.80      16.16
C       4.06       3.57      13.60
C       5.00       2.63      14.26
C       3.30       4.39      14.37
C       4.18       3.36      16.52
C       3.24       4.32      15.86
C       4.95       2.55      15.75
O       4.16       5.18      11.46
O       2.60       3.10      11.40
O       5.17       2.94      11.11
O       5.85       1.98      13.64
