50

H       7.31       9.40      38.55
H       7.62       7.70      40.28
C       8.24       4.76      41.83
C       6.82       5.41      43.81
H       0.19       6.56      37.71
C       6.70       8.49      38.48
H      -0.54       4.31      36.85
C       6.01       6.41      39.83
N      11.32       3.68      43.56
N      10.59       4.91      41.14
N       7.90       5.43      40.73
N       6.62       5.35      40.35
N       4.31       4.92      38.89
N       2.53       7.11      38.78
H      12.61       5.39      39.52
H      14.99       4.77      39.94
H      15.64       3.59      42.03
H      13.87       3.04      43.74
C      11.90       4.60      41.39
H       7.52       3.40      43.35
H       6.31       4.01      42.22
C      12.91       4.88      40.44
H       7.66       5.64      44.48
H       9.35       3.78      44.11
H       6.56       6.34      43.28
C      13.64       3.56      42.81
O       1.66       8.09      38.79
H       5.71       8.78      38.10
O      11.71       3.13      44.70
C       9.65       4.58      42.08
C       6.61       7.80      39.85
C      10.04       4.00      43.31
H       1.01       2.36      37.05
C       4.69       6.18      39.29
C       3.79       7.25      39.24
C       7.19       4.30      42.81
H       6.04       8.43      40.55
H       4.04       8.24      39.62
H       3.28       2.66      38.01
C       2.12       5.85      38.29
C       1.32       3.35      37.39
H       5.96       5.13      44.43
C       0.85       5.69      37.74
C       3.04       4.76      38.39
C       0.45       4.44      37.28
C      14.23       4.53      40.68
C       2.59       3.50      37.93
C      14.60       3.87      41.86
H       7.16       7.84      37.74
C      12.31       3.94      42.59
