50

N      14.10       5.26      13.56
N      13.36       6.54      15.95
N      14.25       9.13      16.34
N      14.95      10.21      16.72
N      16.46      11.99      18.19
N      15.47      14.63      18.28
C      12.98       5.24      15.71
C      12.22       4.52      16.65
C      11.85       3.20      16.42
C      12.26       2.53      15.25
C      13.03       3.21      14.31
C      13.36       4.54      14.53
C      14.46       6.53      13.80
C      14.13       7.18      15.01
C      14.66       8.49      15.25
C      15.58       9.17      14.27
C      14.80      10.06      13.29
C      12.20      11.71      18.61
H      11.92       5.04      17.57
H      11.25       2.67      17.16
C      15.19      12.29      17.78
C      14.71      13.61      17.83
C      14.33      11.26      17.24
C      12.83      11.43      17.23
H      11.97       1.50      15.09
H      13.38       2.73      13.40
H      15.02       7.01      13.01
H      16.20       8.44      13.72
H      16.28       9.79      14.85
H      14.19       9.46      12.60
H      15.47      10.68      12.67
H      14.13      10.74      13.82
H      12.53      10.97      19.34
H      12.41      10.52      16.80
H      12.56      12.25      16.54
H      11.10      11.66      18.54
H      12.46      12.71      18.99
C      16.77      14.35      18.77
H      18.92      11.74      19.11
H      20.33      13.57      20.05
C      19.32      13.79      19.69
C      18.82      15.10      19.78
H      19.43      15.90      20.19
H      17.12      16.38      19.32
C      18.55      12.76      19.16
O      15.06      15.87      18.27
O      14.40       4.64      12.43
C      17.24      13.01      18.69
C      17.54      15.38      19.31
H      13.73      13.89      17.46
