50

H      11.64      10.59      38.56
C       9.91       8.02      37.12
H       9.51      10.53      34.80
C       9.87      10.06      35.71
H      10.98       8.23      38.97
C      10.68       8.75      38.06
H      10.92      11.77      36.49
C      10.63      10.73      36.66
H       7.87       6.26      34.41
C       9.53       8.72      35.93
C       8.43       6.74      35.21
H       8.70       3.81      34.00
H       7.42       2.59      34.08
C       8.76       6.09      36.42
C       8.23       4.77      36.65
C      11.04      10.07      37.83
H       6.61       3.48      36.26
N       9.53       6.73      37.36
H       6.70       4.82      35.13
H       8.76       2.52      35.23
C       7.31       4.10      35.67
N       8.79       8.01      34.96
N       8.64       4.13      37.75
C       8.09       3.21      34.69
H      11.79       1.61      39.95
H      10.43       0.56      40.40
C      10.69       1.55      40.02
N       7.95       3.05      38.13
C       8.56       2.01      38.65
C      10.06       1.83      38.64
N       6.43       1.27      39.60
H       9.16      -0.62      38.86
N       7.42      -1.36      39.68
C       5.66       0.26      40.09
C       7.70       0.98      39.19
H       5.77      -3.12      40.72
C       8.18      -0.34      39.24
H       3.46      -2.63      41.60
C       6.13      -1.09      40.17
H       2.57      -0.31      41.45
C       5.35      -2.12      40.71
H      10.48       2.75      38.21
H       3.97       1.52      40.51
O       7.84      -2.61      39.68
O       8.49       8.62      33.84
H      10.33       1.02      37.94
C       4.07      -1.84      41.18
C       3.57      -0.52      41.10
C       4.34       0.50      40.57
H      10.36       2.30      40.75
