50

N      12.76      11.67      27.82
N      14.20      11.66      30.23
N      16.00       9.58      30.62
N      16.59       8.44      30.99
N      17.37       6.23      32.45
N      20.15       5.77      32.53
C      13.28      12.64      29.98
C      13.03      13.67      30.92
C      12.07      14.64      30.68
C      11.30      14.63      29.51
C      11.51      13.63      28.56
C      12.50      12.66      28.79
C      13.67      10.72      28.07
C      14.38      10.67      29.29
C      15.24       9.55      29.53
C      15.36       8.42      28.54
C      16.53       8.65      27.56
C      19.27      10.05      32.87
C      18.71       9.65      31.49
C      17.81       8.44      31.50
H      13.62      13.67      31.84
C      18.27       7.18      32.04
C      19.65       6.93      32.07
C      19.27       4.78      33.02
H      13.82      10.01      27.27
H      14.43       8.25      28.00
H      15.55       7.50      29.13
H      16.31       9.49      26.88
H      16.71       7.77      26.93
H      17.46       8.87      28.09
H      18.46      10.13      33.61
H      19.78      11.02      32.81
H      20.00       9.32      33.25
H      18.13      10.48      31.06
H      19.55       9.47      30.80
H      20.38       7.64      31.70
C      17.87       5.05      32.95
H      20.86       3.47      33.55
H      19.29       1.70      34.45
H      16.83       2.09      34.32
H      15.94       4.22      33.38
H      11.92      15.43      31.42
H      10.55      15.40      29.34
H      10.94      13.57      27.64
O      21.44       5.52      32.52
O      12.10      11.74      26.68
C      19.78       3.60      33.55
C      18.90       2.63      34.03
C      17.52       2.85      33.96
C      17.01       4.03      33.43
