50

C      19.52       8.67       1.42
C      20.54       8.39       2.37
C      21.86       8.74       2.13
C      22.23       9.40       0.95
C      21.26       9.70       0.00
C      19.94       9.33       0.23
C      17.67       9.27      -0.49
C      17.28       8.69       0.73
N      18.95       9.59      -0.75
N      18.22       8.35       1.67
C      15.87       8.51       0.98
C      14.82       8.97      -0.00
N      15.52       7.84       2.08
C      14.45       7.85      -0.99
N      14.24       7.91       2.46
C      13.64       6.85       2.98
H      20.24       7.88       3.29
H      22.62       8.49       2.88
H      23.27       9.67       0.78
H      21.50      10.23      -0.92
H      16.97       9.49      -1.30
H      15.15       9.87      -0.54
H      13.94       9.25       0.59
H      15.28       7.63      -1.67
H      13.59       8.13      -1.62
H      14.18       6.93      -0.46
H      14.79       5.43       5.08
H      14.93       3.86       4.26
H      13.34       4.48       4.72
H      15.24       5.57       2.53
H      13.67       4.84       2.27
H      11.66       5.03       3.20
H       7.82       6.71       5.10
H       7.08       8.96       5.96
H       8.64      10.90       5.77
H      10.91      10.61       4.80
C      14.32       4.77       4.33
C      14.24       5.47       2.96
O       9.29       5.17       4.02
O      19.33      10.13      -1.89
N      11.94       8.34       3.92
C      12.32       7.09       3.52
N      10.16       6.16       4.03
C      11.41       6.02       3.57
C       9.75       7.42       4.52
C       8.47       7.58       5.07
C       8.07       8.83       5.53
C       8.95       9.92       5.42
C      10.22       9.77       4.88
C      10.67       8.50       4.42
