50

C      16.28       5.47      18.44
N      11.57       9.58      22.15
N      12.30       8.35      19.73
N      15.00       7.84      19.33
N      16.28       7.91      18.95
N      18.58       8.34      17.48
N      20.36       6.16      17.38
C      22.05       7.58      16.34
C      22.45       8.83      15.87
H      15.59       3.86      17.15
C      21.57       9.92      15.99
H       7.25       9.67      20.62
O      21.23       5.18      17.38
C       9.98       8.38      19.03
C      11.00       8.67      19.98
O      11.19      10.13      23.29
C       8.66       8.74      19.27
C       8.29       9.40      20.45
C      12.85       9.26      21.90
C      13.24       8.69      20.68
H      10.28       7.88      18.11
C      10.58       9.32      21.18
C      16.07       7.85      22.40
H       7.90       8.49      18.53
H      13.55       9.48      22.70
C      16.88       6.85      18.42
H      16.58       9.25      20.82
H      15.24       7.63      23.08
C      20.77       7.42      16.89
C      16.20       4.77      17.07
H      15.73       5.43      16.33
H      15.37       9.87      21.94
C      19.10       6.02      17.83
C      18.20       7.09      17.88
H      16.93       8.14      23.02
H      16.34       6.93      21.87
H      17.18       4.48      16.69
H      15.27       5.57      18.87
C      20.30       9.77      16.53
H      19.61      10.61      16.61
C      19.85       8.50      16.99
H      21.88      10.90      15.64
H      22.70       6.71      16.31
H      16.85       4.84      19.14
H      18.86       5.03      18.21
C      15.70       8.97      21.41
H      23.44       8.96      15.45
H       9.02      10.22      22.33
C      14.65       8.50      20.43
C       9.26       9.70      21.41
