50

C      11.25       4.79      31.20
C      10.74       3.60      30.67
C      11.62       2.63      30.19
C      13.00       2.86      30.26
C      13.51       4.04      30.79
H      10.14       7.65      32.52
C      12.65       5.05      31.27
H       9.66       3.47      30.67
H      11.23       1.71      29.77
H      14.58       4.22      30.84
H      13.69       2.09      29.90
H      12.39      10.48      33.16
H      10.97       9.47      33.42
H      12.06      10.13      30.61
H      10.75      11.02      31.41
H      10.52       9.32      30.97
C      12.25       7.18      32.18
C      10.87       6.93      32.15
N      17.79      11.65      36.40
N      16.33      11.65      34.00
N      14.52       9.58      33.60
N      13.93       8.44      33.23
N      13.15       6.23      31.77
N      10.37       5.77      31.69
H      14.96       7.50      35.09
C      12.71       8.44      32.72
H      18.60      15.43      32.82
C      16.87      10.70      36.15
O       9.08       5.52      31.70
O      18.46      11.71      37.54
H      19.97      15.39      34.90
H      19.60      13.55      36.58
H      16.09       8.24      36.22
C      14.00       8.65      36.67
C      17.25      12.63      34.24
C      17.50      13.66      33.31
C      18.45      14.64      33.55
C      19.23      14.62      34.72
C      19.02      13.61      35.66
C      18.04      12.65      35.43
H      16.90      13.67      32.39
C      16.16      10.66      34.94
C      15.28       9.54      34.70
C      15.16       8.41      35.68
H      16.73       9.98      36.95
C      11.25      10.05      31.35
C      11.81       9.65      32.73
H      14.21       9.49      37.34
H      13.81       7.76      37.29
H      13.06       8.87      36.13
