50

C      17.69      11.43       4.17
N      16.42       5.26       7.85
N      17.16       6.54       5.45
N      16.27       9.13       5.06
N      15.57      10.21       4.69
N      14.05      11.99       3.21
N      15.05      14.63       3.13
H      14.32       8.45       7.69
C      13.75      14.35       2.64
H      15.05      10.68       8.73
C      17.54       5.24       5.69
C      18.30       4.52       4.75
C      18.67       3.20       4.98
C      18.26       2.53       6.15
C      17.49       3.21       7.10
C      17.16       4.54       6.88
C      16.06       6.53       7.60
C      16.39       7.18       6.40
C      15.86       8.49       6.16
C      14.93       9.17       7.14
C      15.72      10.06       8.12
C      18.32      11.71       2.80
H      19.27       2.67       4.25
H      18.60       5.04       3.84
H      15.49       7.01       8.40
H      17.14       2.73       8.01
C      16.19      11.26       4.16
C      15.81      13.61       3.58
H      18.55       1.50       6.32
C      11.20      13.79       1.71
H      16.33       9.46       8.81
O      16.12       4.64       8.98
C      15.33      12.29       3.62
H      14.24       9.79       6.55
C      11.70      15.10       1.63
H      16.39      10.75       7.58
C      12.98      15.38       2.10
C      11.97      12.77       2.24
H      17.99      10.97       2.06
H      19.42      11.66       2.86
H      18.06      12.70       2.41
H      11.09      15.90       1.21
H      13.40      16.38       2.09
H      17.96      12.25       4.87
H      16.79      13.89       3.95
H      11.60      11.74       2.30
H      10.19      13.57       1.36
C      13.28      13.01       2.72
H      18.11      10.52       4.60
O      15.46      15.87       3.14
