50

H       7.84       2.59      30.14
C       5.73       8.72      28.28
H       4.94       1.03      26.27
C       4.57       1.56      24.20
C       5.20       1.84      25.58
C       6.70       2.01      25.56
N       6.47       8.01      29.25
N       5.73       6.73      26.86
N       6.62       4.14      26.47
N       7.32       3.06      26.09
N       8.84       1.28      24.62
N       7.85      -1.36      24.53
H       4.29       8.23      25.24
H       3.62      10.59      25.65
C       5.36       8.02      27.10
C       4.59       8.75      26.16
C       4.22      10.07      26.39
C       4.63      10.74      27.56
C       5.40      10.06      28.50
H       6.56       3.81      30.21
H       7.40       6.26      29.81
H       6.50       2.52      28.99
C       6.83       6.74      29.01
H       3.48       1.61      24.27
C       7.17       3.21      29.53
H       8.65       3.48      27.96
H       4.90       2.30      23.46
H       6.10      -0.62      25.36
C       7.04       4.78      27.56
H      11.81      -2.63      22.62
C       6.51       6.09      27.80
C       7.96       4.10      28.54
H       9.50      -3.11      23.49
H       4.83       0.56      23.82
H       4.78       2.76      26.01
C      11.20      -1.83      23.03
H      11.30       1.53      23.70
C       7.57       0.98      25.02
H      12.70      -0.30      22.76
C      11.69      -0.52      23.12
C       9.61       0.26      24.12
C      10.92       0.50      23.65
C       9.14      -1.08      24.04
O       6.77       8.62      30.38
O       7.43      -2.60      24.54
H       4.34      11.77      27.73
H       5.75      10.54      29.42
C       7.09      -0.34      24.98
C       9.92      -2.11      23.50
H       8.57       4.82      29.09
