10

Cu      10.09      -1.53       4.06
N      11.71      -2.59       4.04
N       8.74      -1.61       2.61
C       8.49       0.55       5.31
C       9.93      -0.43       6.82
C      12.41      -2.83       2.89
N       9.41      -0.43       5.56
C      12.23      -3.18       5.17
C       9.02      -1.75       1.29
C       7.42      -1.50       2.93
