82

Cu       3.51       4.97       5.82
Cu       6.25       4.97       5.82
H       5.18       0.81       8.89
H       8.62       0.34       3.25
H       8.35      10.26       4.75
H       9.57       1.44       5.23
H       7.96       1.66       5.96
H       7.29       3.17       4.03
H       8.72       2.88       3.21
H       2.62       9.57       7.51
H       1.08       9.55       8.47
H       2.66       9.22       9.28
H       1.35       7.13       8.91
H       6.74       0.72       8.23
H       2.92       7.13       8.08
H       1.75       7.70       5.85
H       0.36       8.05       6.66
H       8.70       6.99      10.67
H       7.03       6.42      10.31
H       8.16       5.38      11.27
H       8.07       4.49       8.99
H      -0.06       5.22       9.27
H       8.83       7.36       8.19
H       7.35       6.63       7.78
H       3.17       8.43       3.81
H       2.86       3.25       1.44
H       1.21       2.57       1.12
H       1.71       4.13       0.36
H       0.17       4.50       2.28
H       1.75       5.25       2.55
H       2.47       3.29       3.94
H       1.05       2.44       3.64
H       4.75       8.30       3.20
H       5.34       9.18       8.92
H       6.92       9.10       8.30
H       2.87       0.81       3.30
H       4.46       0.75       2.71
H       6.94       0.66       3.83
C       4.81       2.43       5.80
C       4.52       9.66       4.70
C       5.50       9.63       6.95
C       4.26       0.32       4.68
C       4.96       8.96       5.83
C       4.79       0.99       5.80
C       9.03       4.11       5.01
C       0.71       5.91       6.53
C       9.03       5.76       6.69
C       0.73       4.16       4.96
C       8.34       2.98       4.25
C       4.94       7.52       5.83
C       8.50       1.64       4.99
C       7.98       0.47       4.15
C       1.21       7.34       6.73
C       1.92       7.58       8.07
C       2.08       9.08       8.35
C       8.40       6.37       7.93
C       8.60       5.45       9.14
C       8.09       6.10      10.43
C       1.42       3.47       3.78
C       1.24       4.27       2.48
C       4.93       5.14       3.31
C       1.79       3.51       1.28
C       4.82       4.81       8.33
C       4.95       5.24       1.89
C       4.80       4.70       9.75
C       5.00       5.31       0.70
C       4.75       4.62      10.94
C       5.24       0.30       6.93
N       1.45       4.97       5.82
N       8.31       4.97       5.82
N       5.76       1.03       8.05
N       4.02       8.97       3.54
N       5.91       8.88       8.10
N       3.86       1.06       3.52
O       3.66       3.04       5.82
O       6.10       6.91       5.82
O       3.78       6.91       5.82
O       5.97       3.04       5.82
O       3.77       5.10       3.93
O       5.98       4.85       7.72
O       3.67       4.85       7.72
O       6.09       5.10       3.93
