22

O       9.30       3.47       4.47
O       9.59       5.64       4.64
H       9.01       7.96      -2.16
H       9.65       3.96      -2.30
H       8.97       7.91       0.15
H       9.90       2.64       2.16
H       9.26       6.63       2.30
H       9.93       2.69      -0.15
C       9.39       6.02      -3.92
C       9.33       5.94      -2.44
C       9.13       7.14      -1.70
C       9.53       4.76      -1.79
C       9.55       4.70      -0.37
C       9.13       7.11      -0.34
C       9.52       4.58       3.92
C       9.58       4.65       2.44
C       9.77       3.46       1.70
C       9.38       5.84       1.79
C       9.35       5.90       0.37
C       9.78       3.49       0.34
O       9.61       7.13      -4.47
O       9.31       4.96      -4.64
