664

H       3.63      10.69       8.06
H       1.28      11.10       8.17
H      29.56      11.18       8.06
H      27.22      11.03       7.64
H      27.91       8.08       4.68
H       3.01       7.70       5.14
H       0.71      10.23       3.32
H       1.09       7.83      43.14
H       0.49       5.89       1.14
H      30.16       6.32       7.21
H      30.50       4.14       2.88
H      29.84       2.86       4.80
H      25.61       8.58       6.04
H      28.94       4.42       7.91
H       1.91      10.96       1.39
H       5.30       9.10       5.67
H       3.67      32.81      29.58
H       1.32      32.40      29.47
H      29.60      32.32      29.56
H      27.26      32.48      29.97
H      27.94      35.43      32.92
H       3.04      35.82      32.49
H       0.73      33.28      34.30
H       1.07      35.69      37.76
H       0.48      37.63      36.47
H      30.20      37.19      30.39
H      30.51      39.37      34.72
H      29.87      40.65      32.80
H      25.64      34.93      31.56
H      29.00      39.10      29.67
H       1.91      32.57      36.25
H       5.33      34.42      31.96
H       3.67      32.50       7.76
H       1.33      32.39       8.17
H      29.61      32.49       8.25
H      27.26      32.91       8.10
H      27.95      35.88       5.16
H       3.05      35.43       4.78
H       0.73      37.25       7.31
H       1.09      40.71       4.91
H       0.51      39.42       2.97
H      30.21      33.34       3.40
H      30.53      37.68       1.22
H      29.88      35.75      43.22
H      25.65      34.51       5.66
H      29.00      32.64       1.50
H       1.90      39.20       8.04
H       5.34      34.89       6.17
H       3.86      11.00      30.00
H       1.52      11.15      29.55
H      29.80      11.09      29.43
H      27.45      10.71      29.54
H      28.04       7.68      32.44
H       3.13       8.02      32.92
H       0.84       6.27      30.35
H       1.10       2.79      32.73
H       0.50       4.08      34.67
H      30.29      10.17      34.25
H      30.52       5.82      36.42
H      29.86       7.75      37.69
H      25.77       9.04      31.93
H      29.02      10.87      36.13
H       1.99       4.31      29.62
H       5.45       8.53      31.53
H      18.99      32.31      29.70
H      16.63      32.74      29.84
H      14.08      32.82      29.69
H      11.74      32.59      29.21
H      12.63      29.68      26.27
H      18.27      29.34      26.77
H      16.02      31.89      24.96
H      16.42      29.48      21.51
H      15.85      27.54      22.80
H      14.80      27.98      28.86
H      15.17      25.80      24.54
H      14.51      24.52      26.45
H      10.44      30.36      26.64
H      13.60      26.07      29.57
H      17.20      32.62      23.02
H      20.44      29.75      27.58
H      19.06      11.20       7.97
H      16.70      10.76       7.79
H      14.15      10.67       7.91
H      11.80      10.87       8.39
H      12.65      13.79      11.33
H      18.28      14.17      10.88
H      16.05      11.61      12.64
H      16.43      14.00      16.11
H      15.84      15.95      14.83
H      14.83      15.53       8.75
H      15.16      17.70      13.09
H      14.51      18.98      11.17
H      10.46      13.05      10.96
H      13.62      17.44       8.05
H      17.23      10.88      14.58
H      20.46      13.75      10.15
H      18.70      10.73      29.51
H      16.32      10.68      29.86
H      13.78      10.79      29.69
H      11.48      11.15      29.16
H      12.59      14.23      26.48
H      18.22      13.68      26.53
H      15.89      15.59      28.96
H      16.42      19.03      26.56
H      15.90      17.73      24.60
H      14.78      11.68      25.03
H      15.25      15.99      22.84
H      14.60      14.08      21.55
H      10.41      13.51      26.54
H      13.62      10.98      23.11
H      17.09      17.52      29.72
H      20.32      12.68      26.97
H      18.95      32.69       8.25
H      16.58      32.79       7.82
H      14.04      32.63       7.77
H      11.70      32.14       8.03
H      12.64      29.19      10.91
H      18.28      29.74      11.21
H      16.03      27.90       8.67
H      16.45      24.44      11.07
H      15.87      25.73      13.02
H      14.80      31.79      12.59
H      15.20      27.47      14.77
H      14.53      29.38      16.05
H      10.43      29.58      10.30
H      13.59      32.48      14.49
H      17.22      25.96       7.94
H      20.43      30.60      10.81
H      27.59      39.93       6.93
H       1.08       2.28       7.31
H       2.36       0.30       7.38
H      27.33       0.74       6.69
H      27.65       3.58      30.61
H       1.14      41.23      30.34
H       2.43      43.21      30.30
H      27.38      42.78      30.85
H      27.59      33.62      37.03
H       1.14      33.28      42.62
H       2.40      33.24      40.62
H      27.37      33.84      41.12
H      27.60       9.91       0.60
H       1.14      10.24      38.29
H       2.40      10.29      40.29
H      27.38       9.67      39.80
H      12.14      18.34      28.53
H      16.42      23.90      28.96
H      17.66      21.89      29.03
H      11.95      22.43      28.31
H      12.22      25.19       9.06
H      16.44      19.58       8.67
H      17.71      21.57       8.60
H      11.99      21.10       9.30
H      12.23      11.96      15.37
H      16.47      11.59      20.96
H      17.73      11.53      18.96
H      12.01      12.20      19.45
H      12.22      31.50      22.24
H      16.44      31.89      16.64
H      17.71      31.95      18.64
H      11.99      31.26      18.15
H      24.91       7.16       9.48
H      21.52      12.92       7.31
H      23.16      12.31       5.75
H      21.71       9.47      10.58
H      24.91      36.32      28.10
H      21.51      30.60      30.36
H      23.19      31.21      31.88
H      21.68      34.02      27.07
H      24.93      31.06       4.27
H      21.50      33.33       9.97
H      23.20      34.85       9.37
H      21.67      30.05       6.53
H      24.93      12.45      33.42
H      21.52      10.13      27.74
H      23.33       8.73      28.23
H      21.54      13.30      31.29
H       6.06      36.24       9.64
H       9.31      30.42       7.41
H       7.69      31.10       5.85
H       9.17      33.81      10.74
H       5.92       7.28      27.99
H       9.31      13.06      30.09
H       7.87      12.30      31.79
H       8.85       9.82      26.68
H       6.03      12.58       4.34
H       9.34      10.26      10.08
H       7.67       8.73       9.43
H       9.21      13.59       6.71
H       6.06      30.94      33.30
H       9.31      33.20      27.50
H       7.68      34.75      28.17
H       9.19      29.88      30.89
C      30.63       6.60       5.19
C       0.01       5.97       3.94
C       0.26       6.94       2.97
C       0.31       8.19       3.60
C       0.63       9.34       2.84
C       0.91       9.24       1.45
C       0.83       7.96       0.84
C       0.49       6.81       1.59
C      30.48       4.59       3.80
C      30.11       3.84       4.94
C      29.99       4.45       6.21
C      30.28       5.84       6.32
C       1.25       8.63       5.86
C       0.78       9.62       6.74
C      30.10       9.74       6.60
C      29.65       8.85       5.61
C      29.23      10.56       7.32
C      27.85      10.47       7.06
C      27.34       9.59       6.07
C      28.26       8.76       5.36
C       2.65       8.39       5.80
C       3.54       9.11       6.64
C       3.01      10.11       7.50
C       1.64      10.36       7.56
C       0.11       8.07       5.07
C      30.66      36.92      32.42
C       0.03      37.55      33.67
C       0.27      36.58      34.64
C       0.32      35.33      34.02
C       0.64      34.18      34.78
C       0.91      34.29      36.18
C       0.82      35.57      36.78
C       0.49      36.71      36.03
C      30.50      38.93      33.80
C      30.14      39.67      32.66
C      30.02      39.06      31.39
C      30.32      37.67      31.28
C       1.28      34.88      31.76
C       0.81      33.89      30.89
C      30.14      33.77      31.02
C      29.68      34.66      32.00
C      29.26      32.95      30.29
C      27.89      33.04      30.55
C      27.37      33.92      31.53
C      28.28      34.75      32.24
C       2.68      35.12      31.83
C       3.58      34.40      30.99
C       3.05      33.40      30.14
C       1.67      33.14      30.07
C       0.14      35.44      32.55
C      30.67      35.37       3.67
C       0.05      36.62       3.04
C       0.29      37.59       4.01
C       0.34      36.96       5.27
C       0.64      37.73       6.41
C       0.92      39.12       6.31
C       0.84      39.73       5.03
C       0.51      38.97       3.89
C      30.52      36.76       1.66
C      30.15      35.62       0.91
C      30.03      34.34       1.52
C      30.33      34.24       2.91
C       1.29      34.71       5.71
C       0.82      33.83       6.69
C      30.14      33.96       6.81
C      29.69      34.94       5.92
C      29.27      33.23       7.63
C      27.90      33.49       7.54
C      27.38      34.49       6.67
C      28.30      35.19       5.84
C       2.69      34.77       5.47
C       3.59      33.93       6.18
C       3.05      33.07       7.18
C       1.68      33.00       7.43
C       0.15      35.49       5.14
C       0.04       8.14      33.98
C       0.08       6.88      34.60
C       0.33       5.92      33.63
C       0.41       6.55      32.38
C       0.73       5.79      31.24
C       0.98       4.39      31.34
C       0.86       3.78      32.61
C       0.53       4.53      33.75
C      30.52       6.75      35.98
C      30.15       7.88      36.72
C      30.06       9.17      36.12
C      30.39       9.28      34.74
C       1.41       8.80      31.97
C       0.97       9.70      31.00
C      30.29       9.58      30.85
C      29.81       8.60      31.72
C      29.44      10.34      30.03
C      28.06      10.10      30.10
C      27.52       9.10      30.94
C      28.41       8.37      31.78
C       2.80       8.70      32.24
C       3.72       9.54      31.55
C       3.22      10.43      30.56
C       1.85      10.52      30.29
C       0.24       8.02      32.51
C      15.29      28.25      26.84
C      15.37      27.62      25.59
C      15.61      28.59      24.62
C      15.64      29.85      25.24
C      15.95      30.99      24.48
C      16.23      30.89      23.09
C      16.16      29.61      22.49
C      15.84      28.46      23.24
C      15.15      26.24      25.46
C      14.78      25.49      26.59
C      14.64      26.10      27.87
C      14.94      27.49      27.97
C      16.56      30.31      27.51
C      16.09      31.30      28.39
C      14.71      31.39      28.26
C      14.29      30.49      27.26
C      13.78      32.17      28.97
C      12.40      32.02      28.68
C      11.94      31.11      27.70
C      12.92      30.36      26.97
C      17.94      30.05      27.44
C      18.87      30.79      28.22
C      18.36      31.77      29.11
C      16.98      32.03      29.20
C      15.45      29.72      26.72
C      15.29      15.25      10.78
C      15.37      15.87      12.03
C      15.61      14.90      13.00
C      15.65      13.65      12.37
C      15.96      12.50      13.13
C      16.25      12.60      14.52
C      16.17      13.88      15.13
C      15.84      15.03      14.38
C      15.15      17.26      12.17
C      14.78      18.01      11.03
C      14.66      17.40       9.75
C      14.95      16.01       9.64
C      16.59      13.20      10.11
C      16.13      12.21       9.23
C      14.75      12.11       9.34
C      14.32      13.00      10.34
C      13.83      11.32       8.64
C      12.46      11.45       8.92
C      11.98      12.35       9.90
C      12.95      13.11      10.62
C      17.97      13.47      10.20
C      18.91      12.72       9.44
C      18.42      11.74       8.54
C      17.04      11.49       8.43
C      15.46      13.78      10.90
C      15.28      13.70      25.30
C      15.40      14.94      24.67
C      15.61      15.92      25.65
C      15.58      15.30      26.91
C      15.85      16.07      28.06
C      16.16      17.45      27.96
C      16.14      18.05      26.68
C      15.86      17.30      25.52
C      15.21      15.07      23.29
C      14.85      13.94      22.53
C      14.68      12.67      23.15
C      14.95      12.56      24.54
C      16.44      13.02      27.44
C      15.89      12.16      28.40
C      14.51      12.31      28.40
C      14.17      13.31      27.49
C      13.52      11.55      29.06
C      12.16      11.78      28.74
C      11.77      12.77      27.80
C      12.81      13.55      27.21
C      17.83      13.04      27.23
C      18.69      12.22      28.00
C      18.11      11.35      28.96
C      16.72      11.31      29.16
C      15.37      13.83      26.79
C      15.29      29.77      12.31
C      15.39      28.52      12.94
C      15.63      27.56      11.97
C      15.65      28.18      10.72
C      15.95      27.42       9.57
C      16.24      26.03       9.67
C      16.18      25.42      10.95
C      15.86      26.17      12.10
C      15.17      28.39      14.33
C      14.79      29.52      15.07
C      14.65      30.80      14.47
C      14.94      30.90      13.08
C      16.55      30.45      10.25
C      16.07      31.33       9.26
C      14.69      31.19       9.18
C      14.29      30.19      10.08
C      13.74      31.89       8.42
C      12.37      31.61       8.58
C      11.93      30.62       9.50
C      12.91      29.89      10.22
C      17.93      30.39      10.50
C      18.85      31.19       9.76
C      18.32      32.08       8.79
C      16.94      32.15       8.53
C      15.45      29.65      10.84
C      29.88       1.35       7.08
C      29.25       0.08       6.96
C      30.03      42.17       7.06
C       0.74      42.22       7.23
C       1.35       0.21       7.22
C       0.59       1.40       7.15
C      28.03      40.86       6.93
C      27.26      42.02       6.78
C      29.14       2.49       7.52
C       1.51      41.11       7.71
C      29.94      42.16      30.51
C      29.31       0.15      30.63
C      30.09       1.35      30.54
C       0.80       1.29      30.40
C       1.41       0.02      30.43
C       0.66      42.12      30.48
C      28.09       2.66      30.62
C      27.32       1.49      30.76
C      29.21      41.02      30.06
C       1.58       2.40      29.94
C      29.93      33.48      41.71
C      29.28      33.60      40.44
C      30.05      33.52      39.24
C       0.76      33.36      39.28
C       1.39      33.39      40.55
C       0.65      33.44      41.74
C      28.03      33.62      37.95
C      27.28      33.76      39.13
C      29.22      33.01      42.85
C       1.52      32.89      38.16
C      29.93      10.03      39.20
C      29.29       9.92      40.47
C      30.06      10.01      41.67
C       0.77      10.16      41.64
C       1.39      10.14      40.37
C       0.65      10.08      39.17
C      28.04       9.91      42.96
C      27.29       9.76      41.79
C      29.22      10.49      38.06
C       1.53      10.63      42.75
C      14.51      23.00      28.72
C      13.86      21.74      28.58
C      14.62      20.53      28.69
C      16.02      20.56      28.87
C      16.66      21.82      28.86
C      15.92      23.02      28.79
C      12.59      19.25      28.54
C      11.85      20.43      28.39
C      13.79      24.15      29.17
C      16.77      19.43      29.36
C      14.55      20.50       8.90
C      13.90      21.77       9.03
C      14.67      22.97       8.93
C      16.08      22.93       8.75
C      16.70      21.66       8.76
C      15.95      20.47       8.83
C      12.66      24.27       9.06
C      11.91      23.09       9.21
C      13.82      19.36       8.45
C      16.84      24.04       8.26
C      14.57      11.81      20.04
C      13.92      11.94      18.78
C      14.69      11.84      17.58
C      16.10      11.67      17.61
C      16.72      11.69      18.89
C      15.98      11.75      20.08
C      12.68      11.97      16.29
C      11.93      12.12      17.46
C      13.84      11.36      21.19
C      16.86      11.20      16.50
C      14.54      31.66      17.56
C      13.90      31.53      18.83
C      14.67      31.63      20.03
C      16.08      31.81      19.99
C      16.70      31.79      18.72
C      15.95      31.73      17.53
C      12.66      31.50      21.32
C      11.91      31.34      20.15
C      13.82      32.12      16.42
C      16.84      32.28      21.10
C      21.85      11.33       8.69
C      22.62      10.14       8.87
C      23.66       9.81       7.94
C      23.91      10.61       6.79
C      23.02      11.69       6.56
C      22.03      12.05       7.48
C      24.28       7.95       9.32
C      23.23       8.24      10.20
C      21.13      11.92       9.78
C      25.12      10.54       6.00
C      21.84      32.17      28.96
C      22.61      33.35      28.76
C      23.67      33.68      29.67
C      23.94      32.89      30.82
C      23.04      31.82      31.08
C      22.03      31.46      30.17
C      24.28      35.53      28.27
C      23.21      35.25      27.41
C      21.07      31.59      27.90
C      25.15      32.97      31.60
C      21.83      31.94       8.40
C      22.62      31.73       7.22
C      23.68      32.63       6.90
C      23.95      33.78       7.69
C      23.05      34.04       8.76
C      22.03      33.14       9.11
C      24.30      31.23       5.05
C      23.22      30.39       5.32
C      21.04      30.88       8.96
C      25.16      34.55       7.62
C      21.79      11.50      29.34
C      22.59      11.73      30.50
C      23.73      10.89      30.76
C      24.05       9.78      29.93
C      23.15       9.51      28.87
C      22.06      10.34      28.58
C      24.30      12.27      32.65
C      23.15      13.04      32.44
C      20.86      12.49      28.86
C      25.31       9.09      29.96
C       9.01      32.00       8.80
C       8.27      33.20       9.00
C       7.25      33.58       8.07
C       6.98      32.81       6.90
C       7.84      31.70       6.66
C       8.82      31.30       7.59
C       6.66      35.43       9.48
C       7.70      35.10      10.36
C       9.69      31.37       9.89
C       5.78      32.92       6.11
C       8.90      11.50      28.71
C       8.15      10.31      28.53
C       7.23       9.89      29.55
C       7.08      10.62      30.76
C       7.95      11.72      30.95
C       8.83      12.17      29.95
C       6.52       8.08      28.13
C       7.45       8.47      27.15
C       9.31      12.26      27.58
C       5.94      10.48      31.64
C       9.04      11.66       8.52
C       8.28      11.89       7.33
C       7.23      10.98       6.98
C       6.96       9.81       7.74
C       7.83       9.55       8.83
C       8.83      10.45       9.21
C       6.64      12.40       5.14
C       7.70      13.26       5.45
C       9.77      12.73       9.14
C       5.74       9.04       7.64
C       9.02      31.80      29.08
C       8.27      31.60      30.27
C       7.24      32.52      30.64
C       6.97      33.69      29.87
C       7.83      33.93      28.77
C       8.82      33.02      28.38
C       6.66      31.11      32.50
C       7.71      30.24      32.17
C       9.72      30.72      28.45
C       5.77      34.47      29.99
N      25.97       9.47       5.93
N      29.39       3.82       7.29
N       1.42      10.34       0.80
N       4.92       8.97       6.55
N      26.00      34.04      31.66
N      29.45      39.70      30.30
N       1.42      33.18      36.83
N       4.95      34.55      31.08
N      26.01      34.63       6.55
N      29.45      33.26       0.89
N       1.42      39.78       7.42
N       4.96      34.01       6.05
N      26.15       8.99      31.04
N      29.47      10.25      36.74
N       1.49       3.73      30.24
N       5.09       9.42      31.70
N      10.60      30.92      27.42
N      14.05      25.47      28.94
N      16.73      32.00      22.44
N      20.22      30.54      28.11
N      10.64      12.51      10.17
N      14.07      18.04       8.68
N      16.75      11.49      15.17
N      20.27      12.97       9.60
N      10.48      12.91      27.31
N      14.09      11.60      22.51
N      16.64      18.10      29.08
N      20.06      12.22      27.79
N      10.59      30.35       9.72
N      14.05      31.87      15.10
N      16.74      25.37       8.56
N      20.20      31.12      10.02
N      29.36      40.98       7.07
N      27.89      43.23       6.80
N      29.43       2.54      30.51
N      27.95       0.29      30.75
N      29.38      33.50      38.06
N      27.92      33.74      40.33
N      29.38      10.03      42.86
N      27.93       9.78      40.59
N      13.93      19.35      28.69
N      12.50      21.63      28.42
N      14.00      24.15       8.92
N      12.54      21.89       9.18
N      14.02      11.83      16.39
N      12.56      12.09      18.66
N      14.00      31.64      21.21
N      12.54      31.37      18.95
N      24.45       8.75       8.24
N      22.44       9.32       9.95
N      24.46      34.74      29.35
N      22.42      34.18      27.68
N      24.48      32.31       5.85
N      22.42      30.65       6.39
N      24.53      11.23      31.81
N      22.34      12.75      31.39
N       6.49      34.66       8.38
N       8.45      34.00      10.10
N       6.46       8.81      29.27
N       8.22       9.57      27.37
N       6.45      11.31       5.91
N       8.48      12.98       6.53
N       6.48      32.20      31.72
N       8.47      30.50      31.08
O      25.92      41.94       6.62
O       2.26      41.39       8.80
O      28.37       2.25       8.61
O      25.97       1.58      30.88
O       2.35       2.12      28.85
O      28.46      41.27      28.96
O      25.94      33.89      39.06
O       2.30      31.81      38.43
O      28.44      31.93      42.60
O      25.94       9.63      41.86
O       2.30      11.72      42.48
O      28.44      11.58      38.30
O      10.51      20.37      28.23
O      17.49      19.70      30.47
O      13.02      23.90      30.25
O      10.57      23.17       9.37
O      17.60      23.77       7.18
O      13.04      19.61       7.36
O      10.58      12.27      17.39
O      17.62      10.11      16.77
O      13.06      10.28      20.94
O      10.56      31.19      20.22
O      17.58      33.38      20.83
O      13.02      33.19      16.67
O      23.02       7.45      11.28
O      25.61      11.72       5.56
O      21.90      12.05      10.89
O      22.99      36.04      26.34
O      25.65      31.78      32.03
O      21.82      31.46      26.78
O      22.98      29.31       4.52
O      25.67      34.98       8.81
O      21.72      29.71       9.06
O      22.86      14.06      33.28
O      25.82       8.72      28.76
O      21.42      13.72      28.81
O       7.92      35.86      11.46
O       5.25      31.76       5.66
O       8.85      31.18      10.94
O       7.56       7.77      26.00
O       5.45      11.64      32.16
O       8.28      12.56      26.75
O       7.93      14.35       4.68
O       5.22       8.60       8.81
O       9.02      13.85       9.29
O       7.93      29.14      32.94
O       5.24      34.91      28.82
O       8.93      29.63      28.29
