15

Gd       1.34       9.34       6.14
O       2.05       7.54       7.53
O       1.43       7.67       4.59
P       1.18      11.93       3.52
N       1.73       6.25       7.45
P       2.54       6.71       4.15
C       3.24      10.84       8.17
C      -1.15      11.12       7.28
O       2.00      10.74       7.92
O      -0.45      11.07       6.20
O       1.65      10.74       4.34
C       4.21      10.10       7.21
C      -1.16       9.82       8.10
O       3.69       9.45       6.25
O      -0.51       8.83       7.66
