44

Tb       1.41       0.28      13.97
Tb       0.35       4.27      23.09
Tb      -1.39      -0.35      22.64
Tb       3.14       4.89      13.50
C       0.85       0.19      16.60
C       0.55       0.22      18.05
C       4.32       1.76      12.96
C      -1.37      -1.16      13.08
C       0.88       4.41       7.46
C       1.20       4.37       8.90
C      -2.55       2.81      22.07
C      -0.36      -3.52      22.21
C      -0.87      -0.27      20.00
C      -0.57      -0.31      18.55
C      -4.30      -1.83      23.63
C       1.41       1.10      23.50
C       2.63       4.83      10.86
C       2.33       4.90       9.41
C       2.56      -2.86      14.49
C       0.34       3.45      14.35
O       0.05      -0.39      15.78
O       1.92       0.77      16.18
O       3.18       1.16      12.93
O       4.45       3.01      13.14
O      -0.24      -0.64      12.75
O      -1.52      -2.37      13.46
O       1.65       5.03       6.63
O      -0.17       3.81       7.04
O      -1.42       3.41      22.01
O      -2.66       1.55      22.27
O      -1.49      -4.04      21.88
O      -0.22      -2.32      22.61
O      -0.07       0.33      20.81
O      -1.93      -0.85      20.44
O      -3.15      -1.26      23.69
O      -4.45      -3.08      23.42
O       0.28       0.57      23.83
O       1.53       2.31      23.10
O       1.84       4.21      11.66
O       3.68       5.41      11.30
O       1.42      -3.44      14.55
O       2.70      -1.61      14.28
O       1.46       3.98      14.69
O       0.21       2.25      13.95
