114

C       6.03       1.48      18.39
C       5.42       0.79       0.92
C       4.02       0.67       1.11
C       3.22       0.98      18.52
C       3.78       1.43      17.30
C       5.17       1.81      17.30
C       7.49       1.52      18.37
C       8.28       1.89       0.96
C       9.64       1.47       1.11
C      10.25       0.77       0.04
C       9.52       0.35      17.45
C       8.16       0.78      17.36
C      12.52       5.68       9.26
C      12.63       4.97      10.49
C      12.43       3.58      10.57
C      12.18       2.86       9.39
C      12.20       3.48       8.13
C      12.29       4.90       8.09
C      12.72       7.12       9.23
C      12.36       7.99      10.29
C      12.64       9.38      10.23
C      13.04       9.95       9.00
C       0.23       9.13       7.90
C       0.24       7.73       8.11
C       0.31       0.93       5.64
C       1.67       1.03       5.95
C       2.40       0.34       5.00
C       1.53      13.10       3.97
C       2.07      13.10       2.65
C       3.45       0.29       2.40
C       4.28       0.43       3.55
C       3.78       0.43       4.85
C       2.18       1.99       6.84
C       1.29       2.87       7.44
C      13.00       2.76       7.22
C      12.50       1.77       6.33
C      11.99       0.05       3.69
C      11.25      11.97       3.79
C      11.95      11.03       4.50
C      13.04      11.65       5.11
C      11.57       9.70       4.74
C      12.21       9.02       5.77
C       0.08       9.66       6.58
C       0.53      10.96       6.19
C      11.40       1.07       2.89
C      10.07       0.94       2.37
C       9.31      12.91       2.76
C       9.91      11.85       3.42
C       0.13      13.04       4.54
C      11.89      12.55      14.72
C      10.80      12.70      13.85
C      11.10       0.70      13.08
C      12.48       0.93      13.14
C      13.00       2.01      12.38
C      12.10       2.93      11.77
C      10.71       2.79      11.96
C      10.19       1.64      12.58
C       9.52      12.21      14.18
C       9.28      11.94      15.53
C      10.13      12.60      16.46
C      11.51      12.73      16.08
C       0.36      11.79      13.03
C       1.62      11.28      13.33
C       2.22      12.09      14.24
C       1.35       0.01      14.66
C       3.53      11.93      14.71
C       4.01      12.83      15.65
C       3.22       0.80      16.13
C       1.87       0.91      15.65
C      12.73      11.15      11.99
C       0.12       9.98      11.37
C       1.38       9.47      11.75
C       2.15      10.12      12.72
C       0.01      12.96      13.94
H       6.05       0.34       1.58
H       2.23       0.74      18.53
H      11.17       0.37       0.19
H       7.59       0.50      16.57
H       5.86       1.77      15.51
H       7.50       2.01       2.71
H      12.84       5.46      11.36
H      12.13       1.83       9.44
H       0.03      10.96       8.93
H       0.57       7.15       7.34
H      12.68       5.28       6.25
H      12.16       7.60      12.16
H       8.38      12.74       2.37
H       9.37      11.00       3.59
H      10.77       9.28       4.27
H      11.80       8.12       6.03
H       1.22      11.44       6.77
H      11.98       1.88       2.63
H       1.41      12.98       1.88
H       5.26       0.73       3.50
H       4.39       0.75       5.61
H      11.50       1.68       6.17
H       3.18       2.11       6.99
H       1.67       3.55       8.11
H       1.80       8.66      11.28
H       3.07       9.76      12.95
H       4.13      11.16      14.41
H       4.94      12.62      16.04
H       1.25       1.62      16.03
H      11.84      11.53      11.68
H       0.90       2.07      12.22
H      10.04       3.41      11.49
H       9.18       1.51      12.64
H      12.19       0.07      16.69
H       8.74      12.31      13.53
H       8.31      11.72      15.76
O       5.69       2.44      16.21
O       7.69       2.61       1.96
O      11.97       5.49       6.90
O      11.61       7.56      11.35
