23

C       2.80       5.20       5.32
C       2.38       3.95       4.60
C       1.17       3.91       3.90
C       0.75       2.72       3.30
C       1.54       1.57       3.39
C       2.77       1.60       4.06
C       3.18       2.80       4.66
C       3.63       0.40       4.15
C       3.07      -0.89       4.27
C       3.90      -1.99       4.41
C       5.79      -0.68       4.25
C       5.03       0.48       4.14
N       5.25      -1.91       4.39
H       0.57       4.81       3.85
H      -0.19       2.69       2.76
H       1.21       0.65       2.91
O       1.98       6.17       5.36
O       3.95       5.18       5.88
H       4.12       2.85       5.20
H       2.00      -1.02       4.32
H       5.53       1.44       4.03
H       3.49      -2.99       4.56
H       6.88      -0.65       4.24
