16

C      12.11       7.37      13.31
C      10.81       7.74      13.68
C      10.09       8.79      12.89
C      10.16       7.09      14.74
C      12.77       6.36      14.00
C      12.11       5.67      15.02
C      10.81       6.03      15.39
C      10.09       5.24      16.44
H      12.58       7.89      12.48
H      12.59       4.84      15.53
H       9.16       7.38      15.03
H      13.79       6.09      13.73
O       9.02       9.28      13.39
O       9.02       5.74      16.93
O      10.61       9.09      11.76
O      10.61       4.11      16.73
