16

O      15.16      11.23      13.92
H      13.15      10.47      15.08
H      13.15       7.42      18.13
H      16.59       7.95      15.60
H      11.94       9.21      16.87
O      16.71       9.57      13.67
O      16.71       6.02      17.22
C      13.63       9.65      15.60
C      14.94       9.29      15.23
C      15.66      10.08      14.19
C      15.58       8.23      15.88
C      12.97       8.95      16.61
C      13.63       7.94      17.30
C      14.94       7.58      16.94
C      15.66       6.54      17.73
O      15.17       6.27      18.88
