16

C       5.91       5.65       7.94
C       7.22       6.01       7.58
C       7.94       5.22       6.54
C       7.87       7.06       8.23
C       5.25       6.34       8.96
H       5.44       7.87      10.48
H       5.44       4.82       7.42
C       5.92       7.35       9.65
C       7.94       8.75      10.08
O       7.45       4.07       6.27
O       8.99       9.28       9.57
O       7.45       9.03      11.23
H       4.23       6.08       9.22
O       8.99       5.73       6.02
C       7.22       7.71       9.29
H       8.88       7.35       7.95
