22

H       9.00       6.52      18.01
H       7.95       4.65      19.25
H      11.58      10.37      19.25
O      11.33       9.40      17.05
O       9.36       8.39      16.86
O       9.36       8.39      24.13
O      11.33       9.40      23.94
H       9.00       6.52      22.98
H       7.95       4.65      21.74
H      11.58      10.37      21.74
C      10.36       8.81      17.59
C      10.33       8.64      19.07
C       9.63       7.59      19.77
C       9.00       6.52      19.09
C       8.41       5.48      19.79
C      11.03       9.60      19.79
C      10.36       8.81      23.40
C      10.33       8.64      21.92
C       9.63       7.59      21.22
C       9.00       6.52      21.90
C       8.41       5.48      21.20
C      11.03       9.60      21.20
