27

C       2.71       8.61       0.51
C       2.51       1.37       0.17
C       3.38       9.91       0.20
C       0.59       2.83       0.45
C       1.45       3.82       0.94
C       3.36       2.38       0.67
C       2.17       8.38       1.79
C       2.63       7.62      -0.48
C       2.83       3.61       1.03
O       4.20      -0.34       0.33
O       3.16      10.92       0.93
C       1.55       7.18       2.08
C       2.04       6.39      -0.19
O       4.17       9.95      -0.81
O       0.88       5.00       1.41
O       2.34      -0.81      -0.81
C       1.13       1.62       0.05
C       1.51       6.18       1.09
H      -0.48       3.02       0.36
H       4.42       2.18       0.81
H       2.27       9.17       2.53
H       3.02       7.82      -1.47
H       3.47       4.39       1.44
H       1.12       6.97       3.06
H       1.98       5.61      -0.94
H       0.49       0.84      -0.37
C       3.04       0.01      -0.15
