12

N       5.05      -2.94      12.02
N       4.87      -3.66       9.88
C       5.13      -2.66      10.74
C       4.74      -4.30      12.04
C       4.64      -4.72      10.71
C       4.26      -6.01      10.08
C       4.59      -4.90      13.37
O       4.12      -5.97       8.84
O       4.15      -7.05      10.79
O       4.46      -6.17      13.53
O       4.67      -4.13      14.39
H       5.35      -1.81      10.44
