12

C       1.63      -3.10      10.06
C      -0.16      -3.98       9.39
C       0.83      -4.29       8.47
C       0.93      -5.02       7.18
C      -1.63      -4.33       9.53
O      -2.12      -5.14       8.69
N       2.01      -3.72       8.94
N       0.37      -3.22      10.42
O      -2.26      -3.76      10.44
O       2.00      -4.86       6.55
O      -0.02      -5.72       6.75
H       2.23      -2.61      10.57
