12

N      -6.75       6.17      10.78
N      -8.23       6.58       9.11
O      -8.20       3.19       7.93
C      -7.55       7.03      10.15
C      -7.80       5.26       9.04
C      -6.89       5.00      10.05
C      -6.07       3.85      10.50
C      -8.44       4.43       7.95
O      -5.19       4.12      11.35
O      -6.24       2.70      10.04
H      -7.63       7.92      10.42
O      -9.14       5.04       7.12
