12

C       3.00      12.39       1.41
C       4.93      13.13       0.93
C       3.99      14.16       0.80
C       4.10      15.60       0.48
C       6.38      12.97       0.75
O       3.04      16.25       0.63
O       5.19      16.07       0.06
O       7.10      13.90       0.22
O       6.91      11.86       1.07
H       2.31      11.81       1.65
N       4.24      11.99       1.34
N       2.75      13.68       1.13
