12

N       5.33       6.52       9.52
N       4.79       6.01      11.66
C       3.86       5.16       8.17
C       5.53       6.73      10.80
C       4.31       5.58       9.50
C       3.98       5.28      10.83
C       3.05       4.31      11.46
H       6.16       7.34      11.10
O       3.17       4.21      12.71
O       2.22       3.70      10.75
O       2.82       4.41       8.01
O       4.49       5.60       7.15
