12

C      11.59      -2.92       5.89
C      11.50      -2.18       7.18
C      14.05      -2.87       4.84
O      10.42      -2.34       7.81
O      12.44      -1.48       7.61
O      14.54      -2.06       5.67
O      14.68      -3.44       3.92
H      10.19      -4.59       3.79
N      10.42      -3.49       5.42
N      12.06      -3.99       3.94
C      10.79      -4.10       4.30
C      12.58      -3.22       4.97
