12

N       2.50       0.81      10.76
N       3.58      -0.27      12.43
C       3.65       0.54      11.40
C       2.23      -0.56      12.50
C       1.55       0.11      11.49
C       0.15       0.24      11.04
C       1.83      -1.52      13.60
O      -0.06       1.15      10.19
O      -0.77      -0.47      11.50
O       0.63      -1.93      13.61
O       2.71      -1.83      14.42
H       4.45       0.91      11.12
