12

O       2.21       7.11       6.55
O       0.98       8.88       7.12
O      -1.85       9.47       6.96
O      -3.53       8.28       6.11
N      -2.09       6.04       5.84
N       0.12       5.58       6.05
H      -1.29       4.27       5.53
C      -1.12       5.16       5.77
C      -1.44       7.20       6.25
C      -0.08       6.89       6.38
C       1.12       7.70       6.70
C      -2.30       8.38       6.43
