80

C       5.04      10.08       0.58
C       4.09       0.69       1.31
C       4.09       0.67       2.72
C       5.04       9.99       3.39
C       6.00       9.23       2.67
C       6.01       9.31       1.25
C       4.97      10.09      13.52
C       4.00       9.34      12.84
C       3.99       9.30      11.42
C       4.95      10.08      10.71
C       5.90       0.74      11.39
C       5.91       0.72      12.80
C      10.02       5.00       7.75
C       9.25       4.06       8.47
C       9.23       4.07       9.88
C      10.03       5.03      10.56
C       0.67       5.98       9.85
C       0.63       5.98       8.43
C      10.03       4.94       6.35
C       0.67       3.97       5.68
C       0.75       3.97       4.27
C      10.12       4.93       3.55
C       9.30       5.88       4.21
C       9.28       5.87       5.62
C       0.49       0.36       3.48
C       0.17       1.73       3.67
C       1.14       2.76       3.67
C       2.50       2.40       3.50
C       2.88       1.04       3.33
C       1.86       0.06       3.31
C       9.61       9.49       3.46
C       8.24       9.80       3.27
C       7.22       8.84       3.27
C       7.57       7.47       3.46
C       8.92       7.10       3.61
C       9.91       8.11       3.63
C       9.51       0.46      10.63
C       8.14       0.15      10.80
C       7.12       1.13      10.79
C       7.49       2.49      10.65
C       8.85       2.85      10.48
C       9.82       1.83      10.45
C       0.39       9.58      10.63
C       0.08       8.21      10.45
C       1.06       7.19      10.46
C       2.42       7.55      10.65
C       2.78       8.91      10.81
C       1.76       9.89      10.82
H       3.36       1.20       0.81
H       5.04       9.95       4.41
H       4.94      10.07       9.69
H       6.65       1.22      13.32
H       7.67       9.18       0.33
H       2.34       9.19      13.75
H       8.75       3.33       7.95
H      10.04       5.03      11.58
H       0.02       4.93       2.53
H       8.76       6.60       6.13
H       0.78       7.63       7.52
H       0.81       2.31       6.61
H       9.36       1.99       3.94
H       0.72       7.84       3.89
H       3.93       3.34       4.33
H       6.12       6.57       4.28
H       2.13       9.25       3.04
H       7.98       0.62       2.99
H       7.87       9.34      11.07
H       2.03       0.70      11.08
H       6.57       3.92      11.48
H       3.33       6.11      11.47
H       0.64       2.10      10.18
H       9.27       7.95      10.17
O       6.91       8.58       0.53
O       3.09       8.60      13.55
O       1.38       6.88       7.72
O       1.40       3.07       6.41
O       3.45       3.38       3.47
O       6.61       6.51       3.43
O       6.51       3.44      10.63
O       3.39       6.60      10.62
