27

C      17.82      13.46       0.04
C      16.78      14.39       0.22
C      15.50      13.97       0.58
C      15.28      12.60       0.78
C      16.30      11.66       0.62
C      17.57      12.10       0.24
C      13.14      11.83       0.15
C      13.54      11.70      -1.18
C      12.59      11.36      -2.14
C      11.25      11.17      -1.79
C      10.87      11.28      -0.44
C      11.81      11.60       0.54
C      10.24      10.87      -2.84
O      20.11      13.07      -0.50
O      19.38      15.19      -0.45
O      14.01      12.18       1.17
O      10.58      10.87      -4.07
O       9.02      10.64      -2.47
H      17.00      15.45       0.06
H      14.68      14.66       0.71
H      16.09      10.61       0.80
H      18.38      11.39       0.11
H      14.57      11.86      -1.47
H      12.88      11.25      -3.18
H       9.83      11.14      -0.17
H      11.54      11.67       1.59
C      19.19      13.92      -0.33
