40

N       8.57      -4.62      20.52
O      12.70      -0.88      23.76
O      12.48      -2.59      25.19
H      11.14      -1.00      21.77
H       9.56      -2.13      20.22
H       9.51      -5.58      22.82
H      11.05      -4.41      24.38
C      12.18      -2.01      24.09
C      11.21      -2.65      23.17
C      10.78      -2.01      21.99
C       9.90      -2.64      21.12
C       9.44      -3.94      21.40
C       9.85      -4.58      22.59
C      10.72      -3.93      23.46
C       8.64      -4.50      19.11
C       7.45      -4.65      18.36
H       6.51      -4.81      18.88
C       7.48      -4.61      16.98
H      10.77      -4.15      18.99
C       9.85      -4.26      18.43
C       9.86      -4.21      17.03
C       4.80      -8.40      22.58
C       8.69      -4.39      16.29
C       5.77      -7.40      22.06
C       8.69      -4.37      14.81
H       6.57      -4.73      16.40
C       7.63      -5.55      21.05
O       7.62      -4.73      14.18
C       7.59      -6.86      20.54
H      10.80      -4.04      16.50
C       6.74      -5.18      22.07
C       6.67      -7.77      21.05
C       5.82      -6.09      22.57
O       4.83      -9.60      22.11
O       3.99      -8.07      23.50
H       6.63      -8.78      20.66
H       8.28      -7.15      19.76
H       6.78      -4.16      22.45
H       5.12      -5.80      23.35
O       9.74      -4.00      14.18
