11

C       1.07      10.81       9.07
C       0.40      10.05       4.50
Cd       2.29      11.96       6.27
O       4.35      12.57       7.32
N       1.46       9.99       5.34
O       1.96      14.23       5.92
N       1.04      11.90       8.27
C       4.52      11.42       7.83
C       0.86      14.11       5.27
C       1.81       8.78       5.85
C       0.17      12.89       8.55
