11

C       8.15      14.14      13.50
C       6.72      12.88      14.83
Cd       8.59      10.97      13.04
O       8.24       8.70      13.43
N       7.35      11.04      11.04
C       7.13       8.84      14.06
C      10.83      11.51      11.49
O      10.63      10.34      11.97
N       7.77      12.94      13.99
C       6.46      10.05      10.77
C       7.37      12.12      10.24
