744

Cu      11.79      20.56      34.99
Cu       9.88      22.38      34.99
Cu      19.67      12.04       0.21
Cu      21.68      10.34       0.09
Cu      12.31      12.63      34.96
Cu      10.36      10.68       0.02
Cu      19.35      20.14       0.01
Cu      21.25      22.14      35.01
Cu      12.40       0.21      13.23
Cu       9.92      32.30      11.74
Cu      19.64       0.07      21.90
Cu      21.37      32.60      23.53
Cu      19.09      32.46      13.34
Cu      21.39       0.26      11.59
Cu      12.25       0.14      21.77
Cu       9.98      32.56      23.59
Cu      -0.08      20.18      13.14
Cu       0.03      22.17      11.41
Cu      31.68      12.74      21.83
Cu      31.71      10.60      23.38
Cu      31.64      19.97      21.73
Cu      -0.01      21.99      23.41
Cu      -0.08      12.62      13.16
Cu      31.57      10.64      11.44
H      24.95       7.23      19.95
H      25.24       6.52      15.05
H       6.94      25.81      15.15
H       6.60      25.34      20.07
H      25.75      26.52      14.94
H      25.39      26.38      19.88
H       5.59       6.18      19.91
H       6.35       6.39      15.01
H      25.72      13.86      28.64
H      25.62      18.82      28.48
H       6.05      13.79       6.38
H       6.24      18.70       7.02
H       6.45      13.88      28.20
H       5.48      18.72      28.68
H      25.49      14.01       6.93
H      25.27      18.95       6.71
H      18.35       5.63      29.10
H      13.64       6.68      27.98
H      13.26      27.00       6.25
H      18.08      25.93       6.76
H      13.20       6.40       6.42
H      18.12       5.90       6.81
H      13.21      26.33      28.05
H      18.14      26.01      28.23
C       9.52      20.14      33.37
C      12.01      22.75       1.57
C       9.71      20.15       1.82
C      11.98      22.63      33.13
C      19.65       9.78       1.90
C      21.83      12.70      33.46
C      19.51      10.00      33.49
C      21.84      12.48       1.92
C      10.20      12.90       1.76
C      12.49      10.52      33.15
C      10.00      12.91      33.33
C      12.60      10.27       1.61
C      21.49      19.87       1.77
C      19.07      22.37      33.25
C      21.62      19.96      33.34
C      19.03      22.38       1.70
C      12.03       1.76      10.90
C      10.27      30.74      14.06
C      12.26      30.91      11.10
C      10.05       1.65      13.81
C      21.56      31.04      21.24
C      19.51       1.61      24.26
C      21.61       2.01      21.47
C      19.36      30.69      23.94
C      19.17      30.70      11.17
C      21.34       1.94      13.84
C      18.99       1.62      11.12
C      21.51      31.03      13.69
C       9.93       1.70      21.38
C      12.26      30.95      23.95
C       9.89      30.71      21.49
C      12.42       1.86      23.99
C      30.23      22.42      13.65
C       1.61      19.89      10.94
C       1.82      22.24      13.54
C      30.00      20.19      10.96
C      29.88      10.67      21.28
C       1.71      12.63      23.90
C       1.41      10.57      21.07
C      30.07      12.73      24.15
C       1.64      21.91      21.08
C      30.01      19.94      23.99
C      30.05      22.31      21.34
C       1.55      19.77      23.91
C       1.63      10.46      13.52
C      29.94      12.91      11.12
C      30.01      10.50      13.72
C       1.51      12.61      10.81
C      24.23       6.05      18.30
C      24.29       5.87      16.88
C      25.17       6.67      16.13
C      26.02       7.60      16.73
C      25.94       7.80      18.13
C      25.00       7.08      18.88
C       5.90      24.84      16.77
C       5.81      24.70      18.18
C       6.67      25.45      18.99
C       7.50      26.45      18.46
C       7.61      26.57      17.04
C       6.86      25.71      16.23
C      24.79      27.36      16.67
C      24.69      27.33      18.08
C      25.47      26.41      18.80
C      26.40      25.58      18.16
C      26.50      25.61      16.74
C      25.68      26.50      16.02
C       6.68       5.36      18.25
C       6.87       5.39      16.85
C       6.18       6.35      16.08
C       5.23       7.22      16.66
C       5.02       7.17      18.07
C       5.75       6.23      18.84
C      24.84      15.65      29.47
C      24.83      17.06      29.44
C      25.64      17.74      28.51
C      26.50      17.04      27.64
C      26.51      15.62      27.68
C      25.68      14.95      28.59
C       5.26      15.46       7.47
C       5.31      16.87       7.65
C       6.20      17.62       6.88
C       6.97      17.04       5.87
C       6.94      15.63       5.69
C       6.09      14.86       6.51
C       5.31      15.54      27.42
C       5.05      16.93      27.54
C       5.68      17.66      28.57
C       6.58      17.05      29.45
C       6.84      15.67      29.32
C       6.24      14.94      28.29
C      24.65      15.69       5.90
C      24.58      17.11       5.83
C      25.33      17.87       6.75
C      26.19      17.27       7.68
C      26.25      15.85       7.74
C      25.45      15.09       6.88
C      16.65       6.87      29.60
C      15.29       7.16      29.28
C      14.67       6.47      28.22
C      15.34       5.46      27.51
C      16.70       5.20      27.80
C      17.32       5.87      28.87
C      15.05      27.41       7.39
C      16.44      27.11       7.53
C      17.02      26.17       6.66
C      16.29      25.56       5.63
C      14.91      25.84       5.50
C      14.32      26.78       6.37
C      15.11       7.03       5.65
C      16.52       6.88       5.76
C      17.05       6.02       6.73
C      16.21       5.27       7.57
C      14.81       5.40       7.45
C      14.27       6.31       6.52
C      15.05      27.08      27.24
C      16.47      26.97      27.28
C      17.06      26.09      28.20
C      16.30      25.37      29.13
C      14.88      25.45      29.07
C      14.29      26.27      28.10
C      13.31      24.80       2.22
C      12.73      23.56       2.57
C      12.73      23.16       3.92
C      13.39      23.94       4.89
C      14.06      25.12       4.52
C      13.93      25.59       3.19
C      18.92       9.41       4.26
C      19.01       8.95       2.93
C      18.47       7.69       2.60
C      17.68       6.99       3.53
C      17.46       7.54       4.82
C      18.19       8.67       5.22
C      12.61       8.44      31.69
C      13.11       9.74      32.02
C      14.20      10.25      31.26
C      14.81       9.45      30.26
C      14.45       8.10      30.10
C      13.30       7.62      30.78
C      17.38      24.05      32.55
C      18.34      23.09      32.20
C      18.68      22.90      30.84
C      17.98      23.60      29.84
C      17.03      24.60      30.19
C      16.82      24.88      31.56
C      10.26      28.40      14.97
C       9.77      29.72      15.01
C       8.65      30.02      15.81
C       7.94      28.99      16.45
C       8.39      27.66      16.38
C       9.54      27.36      15.61
C      23.41      30.56      19.64
C      22.30      30.10      20.37
C      21.99      28.73      20.39
C      22.76      27.82      19.64
C      23.85      28.28      18.86
C      24.21      29.65      18.92
C      22.86       2.54      15.71
C      21.98       2.95      14.69
C      21.86       4.32      14.39
C      22.56       5.28      15.15
C      23.48       4.86      16.15
C      23.68       3.48      16.36
C       9.43       4.01      20.53
C       9.10       2.64      20.59
C       7.90       2.20      19.99
C       7.06       3.11      19.33
C       7.47       4.44      19.12
C       8.63       4.90      19.79
C       3.94      19.12      10.42
C       2.56      19.12      10.11
C       2.11      18.43       8.98
C       3.01      17.72       8.17
C       4.37      17.61       8.53
C       4.84      18.37       9.63
C       3.68      14.21      24.22
C       2.80      13.22      24.74
C       2.94      12.84      26.10
C       3.75      13.59      26.97
C       4.55      14.65      26.47
C       4.59      14.87      25.08
C      27.89      18.64      24.46
C      29.06      19.28      24.93
C      29.34      19.25      26.32
C      28.49      18.54      27.20
C      27.37      17.83      26.71
C      27.04      17.95      25.35
C      27.60      13.40      10.36
C      28.97      13.70      10.33
C      29.46      14.67       9.43
C      28.58      15.28       8.52
C      27.19      15.11       8.64
C      26.70      14.15       9.57
C       7.46      18.89      32.66
C       8.76      19.36      32.37
C       9.29      19.16      31.07
C       8.56      18.44      30.11
C       7.30      17.90      30.44
C       6.71      18.22      31.68
C      23.77      14.12      32.79
C      22.53      13.53      32.46
C      22.06      13.62      31.13
C      22.85      14.23      30.14
C      24.06      14.87      30.49
C      24.54      14.76      31.81
C      22.06      19.47       4.17
C      22.25      19.16       2.81
C      23.21      18.21       2.45
C      24.05      17.65       3.42
C      23.79      17.84       4.79
C      22.79      18.78       5.17
C       8.59      14.69       2.39
C       9.47      13.66       2.78
C       9.51      13.26       4.13
C       8.72      13.93       5.09
C       7.78      14.91       4.68
C       7.66      15.21       3.30
C       2.39      23.74      19.57
C       2.67      22.53      20.22
C       3.97      21.98      20.13
C       5.01      22.71      19.53
C       4.72      23.92      18.85
C       3.41      24.44      18.89
C       2.90       8.36      13.84
C       2.66       9.72      14.18
C       3.46      10.29      15.22
C       4.41       9.50      15.90
C       4.43       8.10      15.74
C       3.67       7.55      14.68
C      29.07       8.60      20.13
C      28.88       9.97      20.43
C      27.73      10.63      19.95
C      26.71       9.89      19.31
C      26.97       8.57      18.88
C      28.17       7.94      19.27
C      27.89      23.08      14.24
C      29.27      23.19      14.47
C      29.75      24.10      15.43
C      28.85      24.94      16.11
C      27.46      24.77      15.96
C      26.98      23.84      15.00
C      12.67      28.58      24.66
C      13.02      29.95      24.72
C      14.02      30.36      25.61
C      14.59      29.45      26.51
C      14.33      28.06      26.37
C      13.35      27.64      25.44
C      19.14      29.39       9.00
C      18.65      29.58      10.32
C      17.64      28.69      10.79
C      17.04      27.77       9.90
C      17.32      27.82       8.53
C      18.42      28.59       8.09
C      12.89       2.35       8.63
C      12.51       2.76       9.92
C      12.64       4.11      10.29
C      13.27       5.02       9.41
C      13.88       4.54       8.23
C      13.59       3.23       7.79
C      18.75       3.90      24.88
C      18.81       2.53      25.17
C      18.31       2.06      26.40
C      17.69       2.94      27.30
C      17.51       4.29      26.95
C      18.13       4.79      25.78
C      19.43       8.89      31.31
C      18.82       9.23      32.54
C      17.53       8.71      32.83
C      16.95       7.76      31.97
C      17.44       7.62      30.65
C      18.68       8.22      30.32
C      13.60      22.66      31.26
C      12.62      23.31      32.07
C      12.29      24.67      31.76
C      13.05      25.38      30.81
C      14.00      24.71      30.01
C      14.15      23.32      30.15
C      18.43      24.58       2.64
C      18.33      23.15       2.65
C      17.56      22.54       3.68
C      17.01      23.32       4.71
C      17.01      24.73       4.63
C      17.72      25.35       3.58
C      13.23       8.07       2.49
C      13.32       9.49       2.54
C      14.05      10.09       3.61
C      14.55       9.28       4.66
C      14.48       7.88       4.59
C      13.79       7.28       3.51
C      21.48       3.89      19.84
C      22.21       3.10      20.77
C      23.58       3.42      20.99
C      24.22       4.38      20.19
C      23.51       5.11      19.21
C      22.11       4.92      19.12
C       9.90       3.60      15.35
C       9.28       2.57      14.58
C       7.85       2.49      14.58
C       7.10       3.34      15.42
C       7.71       4.40      16.12
C       9.10       4.57      16.01
C      10.11      28.73      20.03
C       9.32      29.58      20.85
C       7.95      29.23      21.05
C       7.35      28.22      20.26
C       8.14      27.44      19.39
C       9.53      27.61      19.39
C      23.75      30.20      14.34
C      22.33      30.11      14.39
C      21.75      29.03      15.12
C      22.56      28.10      15.78
C      23.96      28.28      15.84
C      24.55      29.29      15.05
C      29.64      14.02      26.24
C      29.14      13.39      25.09
C      27.75      13.34      24.89
C      26.88      14.06      25.73
C      27.40      14.81      26.81
C      28.77      14.69      27.12
C      28.82      19.83       8.74
C      28.91      19.57      10.14
C      27.97      18.69      10.73
C      26.99      18.06       9.94
C      27.05      18.15       8.53
C      27.94      19.08       7.94
C       2.38      13.21       8.52
C       2.53      13.23       9.93
C       3.68      13.81      10.49
C       4.61      14.47       9.67
C       4.37      14.60       8.29
C       3.31      13.89       7.70
C       1.99      17.91      25.51
C       2.47      19.01      24.77
C       3.78      19.48      25.00
C       4.65      18.76      25.85
C       4.15      17.68      26.61
C       2.79      17.34      26.52
C      21.84      14.14       3.84
C      22.55      13.24       3.00
C      23.95      13.07       3.21
C      24.63      13.88       4.14
C      23.92      14.80       4.94
C      22.52      14.84       4.86
C       7.66      19.69       3.23
C       9.04      19.45       2.95
C       9.75      18.53       3.77
C       9.10      17.85       4.81
C       7.70      17.95       4.95
C       6.99      18.90       4.19
C       9.79      14.04      31.10
C       9.19      13.61      32.30
C       7.80      13.77      32.47
C       7.04      14.44      31.50
C       7.66      14.93      30.33
C       9.02      14.66      30.10
C      23.85      19.30      32.37
C      22.43      19.21      32.34
C      21.82      18.47      31.30
C      22.60      17.89      30.29
C      24.01      17.86      30.40
C      24.63      18.60      31.43
C      27.90      10.45      15.06
C      29.04       9.79      14.57
C      29.16       8.39      14.74
C      28.13       7.66      15.36
C      27.02       8.33      15.90
C      26.86       9.71      15.66
C      28.13      22.54      19.68
C      29.06      23.14      20.58
C      29.01      24.56      20.74
C      28.15      25.34      19.95
C      27.29      24.73      19.01
C      27.22      23.33      18.95
C       3.81      22.14      15.10
C       2.90      22.90      14.32
C       3.06      24.31      14.27
C       4.05      24.95      15.04
C       4.93      24.18      15.84
C       4.87      22.77      15.77
C       3.71       9.79      20.55
C       2.36       9.88      20.18
C       1.89       9.13      19.08
C       2.72       8.16      18.48
C       4.10       8.11      18.79
C       4.59       8.96      19.82
C      17.48       3.60      10.77
C      18.14       2.47      10.25
C      18.11       2.22       8.86
C      17.47       3.13       7.99
C      16.85       4.29       8.50
C      16.91       4.55       9.89
C      13.11       2.63      26.29
C      13.15       2.81      24.88
C      13.90       3.89      24.35
C      14.49       4.83      25.22
C      14.56       4.58      26.60
C      13.87       3.46      27.13
C      17.79      28.73      24.20
C      18.77      29.59      24.75
C      19.14      29.42      26.11
C      18.37      28.60      26.95
C      17.36      27.78      26.40
C      17.19      27.75      25.00
C      12.51      28.71       9.94
C      13.02      30.00      10.21
C      14.16      30.46       9.52
C      14.71      29.67       8.49
C      14.32      28.32       8.33
C      13.21      27.85       9.08
Br      14.43      27.40       2.76
Br      13.26      25.38       0.38
Br      13.24      23.44       6.75
Br      11.76      21.59       4.46
Br      18.30       9.16       7.08
Br      19.88      10.99       4.80
Br      17.00       5.24       3.10
Br      18.85       6.89       0.89
Br      12.73       5.79      30.59
Br      10.98       7.70      32.44
Br      16.10      10.23      29.05
Br      14.90      12.03      31.52
Br      15.96      26.51      32.10
Br      16.83      24.24      34.38
Br      18.35      23.17      27.98
Br      20.12      21.72      30.37
Br      10.09      25.53      15.33
Br      11.92      28.03      14.08
Br       6.23      29.41      17.24
Br       8.13      31.85      16.08
Br      25.89      30.25      18.21
Br      23.88      32.43      19.68
Br      22.40      25.93      19.79
Br      20.59      28.08      21.53
Br      25.20       2.86      17.36
Br      22.99       0.68      16.18
Br      22.27       7.16      14.80
Br      20.79       4.88      12.89
Br       9.06       6.78      19.81
Br      10.92       4.68      21.54
Br       5.26       2.58      18.92
Br       7.44       0.33      20.03
Br       6.73      18.46      10.02
Br       4.60      20.23      11.84
Br       2.40      17.08       6.45
Br       0.24      18.50       8.50
Br       5.97      15.98      24.32
Br       3.71      14.62      22.33
Br       3.66      13.22      28.86
Br       2.03      11.29      26.85
Br      25.34      17.29      24.72
Br      27.39      18.78      22.60
Br      28.87      18.60      29.08
Br      30.91      20.12      27.05
Br      24.80      13.82       9.76
Br      26.96      11.96      11.46
Br      29.33      16.15       6.97
Br      31.32      15.13       9.43
Br       4.83      17.91      31.97
Br       6.72      19.13      34.42
Br       9.21      18.35      28.30
Br      10.97      19.95      30.58
Br      26.33      15.33      32.23
Br      24.39      14.11      34.61
Br      22.37      14.01      28.28
Br      20.33      12.91      30.68
Br      22.38      19.12       7.03
Br      20.83      20.87       4.67
Br      25.69      16.81       2.84
Br      23.35      17.62       0.62
Br       6.12      16.13       2.62
Br       8.69      15.42       0.61
Br       8.95      13.50       6.96
Br      10.66      11.81       4.67
Br       3.02      26.19      18.18
Br       0.59      24.43      19.56
Br       6.83      22.13      19.76
Br       4.31      20.21      20.82
Br       3.56       5.64      14.43
Br       2.26       7.53      12.19
Br       5.80      10.35      16.95
Br       3.36      12.16      15.72
Br      28.59       6.16      18.68
Br      30.55       7.58      20.86
Br      24.94      10.63      19.21
Br      27.52      12.54      20.13
Br      25.08      23.62      14.70
Br      27.24      21.93      12.84
Br      29.56      26.47      17.05
Br      31.63      24.18      15.83
Br      12.91      25.76      25.24
Br      11.24      28.02      23.49
Br      15.52      30.13      28.05
Br      14.63      32.19      25.59
Br      18.91      28.68       6.23
Br      20.79      30.18       8.36
Br      15.91      26.37      10.59
Br      17.05      28.68      12.63
Br      14.09       2.68       6.02
Br      12.43       0.58       7.99
Br      13.19       6.92       9.75
Br      11.91       4.74      11.95
Br      18.28       6.69      25.49
Br      19.56       4.58      23.27
Br      17.25       2.34      29.08
Br      18.44       0.19      26.85
Br      19.34       8.25      28.51
Br      21.23       9.47      30.89
Br      15.69       6.50      32.69
Br      16.58       9.19      34.44
Br      14.98      22.30      28.74
Br      14.25      20.86      31.59
Br      12.81      27.30      30.66
Br      10.90      25.67      32.68
Br      17.75      27.27       3.43
Br      19.43      25.54       1.28
Br      16.45      22.48       6.35
Br      17.32      20.62       3.78
Br      13.54       5.36       3.47
Br      12.51       7.17       0.94
Br      15.12      10.12       6.29
Br      14.26      12.01       3.74
Br      21.06       6.19      18.11
Br      19.57       3.68      19.57
Br      26.13       4.61      20.39
Br      24.70       2.55      22.34
Br       9.90       6.22      16.58
Br      11.82       3.82      15.47
Br       5.21       3.02      15.61
Br       6.85       1.21      13.52
Br      10.66      26.22      18.68
Br      12.04      28.93      19.87
Br       5.43      27.96      20.38
Br       6.80      30.14      22.33
Br      26.48      29.40      14.91
Br      24.66      31.66      13.44
Br      21.80      26.45      16.44
Br      19.84      28.69      15.11
Br      29.42      15.26      28.84
Br      31.51      13.91      26.65
Br      24.97      13.92      25.47
Br      27.03      12.18      23.53
Br      28.02      19.30       6.01
Br      29.90      21.18       7.87
Br      25.50      17.18      10.78
Br      27.94      18.37      12.64
Br       3.13      13.78       5.78
Br       0.88      12.32       7.68
Br       6.30      15.04      10.41
Br       4.05      13.65      12.38
Br       1.95      16.30      27.91
Br       0.22      17.21      25.19
Br       6.51      19.27      25.92
Br       4.39      21.12      24.18
Br      21.50      15.73       6.24
Br      19.93      14.42       3.69
Br      26.57      13.73       4.27
Br      25.00      11.75       2.25
Br       5.06      19.08       4.36
Br       6.62      21.05       2.33
Br      10.12      16.89       6.14
Br      11.63      18.14       3.51
Br       9.78      14.97      28.35
Br      11.66      13.68      30.75
Br       5.13      14.55      31.71
Br       6.89      13.06      34.03
Br      26.54      18.70      31.56
Br      24.78      20.35      33.72
Br      21.77      17.33      28.64
Br      19.90      18.27      31.20
Br      25.12      10.51      15.86
Br      27.72      12.37      14.92
Br      28.21       5.73      15.34
Br      30.77       7.47      14.18
Br      25.78      22.48      17.99
Br      28.02      20.62      19.47
Br      28.18      27.28      20.15
Br      30.12      25.50      22.03
Br       6.35      21.73      16.40
Br       3.66      20.22      15.26
Br       4.20      26.88      14.98
Br       1.89      25.44      13.21
Br       6.47       9.04      20.24
Br       4.36      10.82      22.05
Br       1.89       6.79      17.42
Br       0.15       9.49      18.35
Br      16.43       6.28      10.56
Br      17.37       3.90      12.67
Br      17.56       2.82       6.09
Br      18.88       0.61       8.14
Br      13.93       3.07      29.01
Br      12.10       1.18      27.10
Br      15.05       6.53      24.52
Br      14.19       4.09      22.46
Br      16.26      26.27      24.18
Br      17.23      28.83      22.35
Br      18.66      28.69      28.87
Br      20.68      30.30      26.90
Br      12.65      26.01       8.99
Br      10.86      28.11      10.75
Br      15.85      30.51       7.18
Br      14.94      32.18       9.92
O      10.68      19.75      33.73
O      12.47      21.62       1.21
O      10.74      19.66       1.28
O      12.50      21.59      33.64
O      10.87      23.04      33.59
O       9.25      21.25       1.39
O      10.91      23.19       1.11
O       9.03      21.21      33.83
O      19.12      10.89       1.57
O      20.67      13.00      33.87
O      18.93      10.99      34.04
O      20.76      12.92       1.43
O      22.32      11.38       1.48
O      20.70       9.70      33.79
O      22.43      11.67      33.92
O      20.72       9.37       1.34
O      11.27      13.35       1.26
O      13.03      11.57      33.61
O      11.13      13.37      33.70
O      13.04      11.39       1.20
O      11.47       9.84       1.21
O       9.54      11.84      33.83
O      11.41      10.12      33.67
O       9.72      11.79       1.37
O      20.39      19.40       1.36
O      18.63      21.27      33.70
O      20.55      19.46      33.81
O      18.57      21.27       1.28
O      20.13      22.81       1.25
O      22.02      21.09      33.72
O      20.15      22.87      33.71
O      21.96      20.95       1.29
O      12.73       1.52      11.94
O      11.37      31.35      14.28
O      12.84      31.49      12.08
O      11.27       1.41      14.10
O       9.52       1.05      12.84
O      11.04      31.12      10.86
O       9.57      31.02      13.04
O      10.96       1.13      10.68
O      20.37      31.38      20.95
O      18.96       1.28      23.15
O      20.53       1.48      21.06
O      18.71      31.22      22.99
O      20.51      31.13      24.23
O      22.17       1.53      22.50
O      20.66       1.17      24.58
O      22.14      31.50      22.27
O      18.56      31.08      12.22
O      20.28       1.35      14.22
O      18.54       1.12      12.20
O      20.33      31.29      14.09
O      21.96      31.61      12.66
O      20.18       1.38      10.75
O      21.89       1.62      12.74
O      20.22      31.33      10.82
O      11.09       1.39      20.98
O      12.73      31.40      22.85
O      10.94      31.26      21.03
O      12.95       1.44      22.92
O      11.28       1.42      24.35
O       9.37      31.17      22.55
O      11.14      31.35      24.39
O       9.46       1.22      22.46
O      30.53      21.24      13.99
O       1.22      19.42      12.05
O       1.25      21.19      13.99
O      30.49      19.57      11.96
O      30.46      21.32      10.64
O       1.45      22.73      12.44
O       1.18      21.01      10.51
O      30.74      22.96      12.62
O      30.34      11.80      20.93
O       1.17      13.31      22.96
O       1.04      11.76      20.82
O      30.42      13.33      23.08
O      30.55      11.59      24.44
O       0.99       9.95      22.09
O       1.27      11.47      24.15
O      30.30      10.09      22.32
O       1.12      20.79      20.77
O      30.32      19.38      22.90
O      30.42      21.16      20.93
O       1.03      19.23      22.89
O       1.25      20.96      24.24
O      30.55      22.78      22.40
O      30.55      21.05      24.32
O       1.26      22.52      22.13
O       1.28      11.61      13.92
O      30.44      13.41      12.17
O      30.55      11.59      14.10
O       1.15      13.20      11.87
O       0.99      11.50      10.48
O      30.31       9.99      12.60
O      30.30      11.77      10.69
O       1.02       9.95      12.53
