28

H       2.74       0.10       9.81
H       2.62      -1.76       8.14
H       6.27      -3.41       9.75
H       6.36      -1.55      11.42
H       6.34      -6.48       6.72
O       3.80       1.47      11.52
O       5.66       0.53      12.45
H       2.89      -4.73       4.81
H       6.53      -8.13       4.86
H       3.11      -6.38       2.94
O       5.80      -9.26       2.79
O       4.19      -8.11       1.65
C       4.68       0.55      11.62
C       4.56      -0.61      10.69
C       3.50      -0.68       9.78
C       3.43      -1.71       8.86
C       4.45      -2.70       8.82
C       5.50      -2.64       9.77
C       5.55      -1.61      10.69
C       4.45      -3.70       7.82
C       4.51      -4.54       6.94
C       4.61      -5.49       5.89
C       5.64      -6.46       5.90
C       5.74      -7.38       4.86
C       4.83      -7.35       3.79
C       3.81      -6.39       3.78
C       3.69      -5.47       4.82
C       4.95      -8.31       2.66
