28

C      15.31      27.40      11.62
C      15.42      28.55      10.69
C      16.48      28.62       9.78
C      16.55      29.66       8.86
C      15.54      30.65       8.82
C      14.49      30.59       9.77
C      14.43      29.56      10.69
C      15.53      31.65       7.82
C      15.47      32.49       6.94
C      15.38      33.44       5.89
C      14.35      34.41       5.90
C      14.24      35.33       4.86
C      15.15      35.29       3.79
C      16.18      34.34       3.78
C      16.30      33.42       4.82
C      15.03      36.26       2.66
H      17.24      27.85       9.81
H      17.36      29.71       8.14
H      13.72      31.35       9.75
H      13.63      29.50      11.42
H      13.64      34.42       6.72
H      13.46      36.08       4.86
H      16.87      34.32       2.94
H      17.09      32.68       4.81
O      16.19      26.47      11.52
O      14.33      27.42      12.45
O      14.18      37.21       2.79
O      15.80      36.06       1.65
