111

C       8.78      18.28       0.06
C       7.41      18.23       0.39
C       7.31       1.11       0.50
C       8.68       1.19       0.17
C       9.28       2.48       0.10
C       8.54       3.65       0.37
C       7.18       3.54       0.70
C       6.57       2.28       0.75
C       6.75      16.99       0.54
C       7.45      15.79       0.38
C       8.82      15.80       0.07
C       9.47      17.04      19.54
C       0.13       0.02      18.14
C       1.51       0.05      17.82
C       2.09       0.04       0.62
C       0.74      19.60       1.00
C       3.08       0.11       1.62
C       2.75       0.03       2.98
C       1.41      19.57       3.42
C       0.42      19.55       2.40
C       9.02       0.06      17.07
C       9.43       0.11      15.72
C       0.98       0.14      15.43
C       1.92       0.10      16.47
C       9.50      19.60      19.59
C       2.55       0.08      18.87
C       6.62      19.46       0.62
C       9.51       0.15      10.28
C       8.54       1.10       9.90
C       7.45       1.44      10.75
C       7.35       0.79      12.01
C       8.30      19.51      12.44
C       9.35      19.17      11.54
C       0.85      19.57       9.48
C       0.84      19.55       8.05
C       2.03      19.37       7.30
C       3.25      19.19       8.01
C       3.31      19.21       9.42
C       2.11      19.42      10.13
C       4.51      19.02      10.09
C       2.17      19.44       5.82
C       8.20      18.82      13.77
C       6.50       2.37      10.35
C       9.63       9.40      19.34
C       8.24       9.67      19.35
C       7.27       8.67      19.14
C       7.71       7.35      18.92
C       9.09       7.02      18.91
C       0.20       8.06      19.10
C       0.76      10.43      19.65
C       0.56      11.76      19.23
C       1.38      12.83       0.01
C       2.48      12.52       0.84
C       2.75      11.19       1.25
C       1.88      10.17       0.82
C       3.83      10.91       2.07
C       1.01      14.24      19.40
C       9.49       5.59      18.80
C       5.92       8.97      19.15
H       1.30       0.22      14.46
H       2.91       0.14      16.23
H       4.05       0.23       1.37
H       3.54       0.08       3.63
H       9.27      19.48       2.69
H       8.02       0.07      17.27
H       0.45       2.57      19.54
H       6.63       4.38       0.92
H       5.58       2.23       1.00
H       0.64      17.05      19.31
H       5.76      16.95       0.78
H       6.96      14.90       0.52
H       3.21      18.88      18.71
H       3.14       0.99      18.73
H       6.24      19.40       1.65
H       5.79      19.46      19.57
H       0.48      18.66       4.96
H       7.79      19.27      14.72
H       0.07       4.96       1.10
H       0.36      14.54       0.62
H       8.64       1.60       9.01
H       0.19      18.45      11.83
H       6.57       1.02      12.63
H       9.79       0.02       7.54
H       4.12      19.06       7.49
H       2.16      19.49      11.15
H       5.35      19.10       9.57
H       4.57      19.30      11.04
H       2.77      18.57       5.53
H       2.76       0.68       5.66
H       8.97      18.06      13.92
H       7.27      18.26      13.65
H       6.74       2.97       9.60
H       5.93       2.77      11.06
H       7.92      10.62      19.57
H       1.20       7.82      19.09
H       7.02       6.60      18.79
H       9.59      11.99      18.62
H       3.08      13.28       1.18
H       2.03       9.22       1.17
H       4.24      11.67       2.58
H       3.83      10.04       2.55
H       0.89      14.38      18.32
H       1.82      14.94      19.62
H       0.74       5.49      18.63
H       8.98       5.15      17.95
H       5.62       9.87      19.45
H       5.27       8.23      19.32
N       1.04      19.50       4.82
N       8.50       0.31      14.66
N       9.13       4.93       0.42
N       9.42      14.52      19.64
