13

C      15.84      11.54       2.67
N      14.77      12.39       2.66
N      11.96      12.09       2.65
N      14.76      12.10       5.51
C      12.15      11.32       1.55
N      11.96      12.39       5.50
C      10.88      12.94       2.64
C      12.13      13.15       6.61
C      10.89      11.54       5.50
Ni      13.36      12.24       4.08
C      14.58      11.33       6.62
C      15.84      12.94       5.51
C      14.59      13.15       1.55
