396

H      25.25       0.13       4.71
H      25.27       0.10      42.86
H      25.52      39.02      45.92
H      25.55      39.66       1.02
H      25.54       3.13      46.56
H      25.50       3.77       1.65
H      24.21       2.83       4.13
H      24.54       3.01      44.37
H      24.23      39.96      43.44
H      24.54      39.78       3.20
H      12.35      21.14      28.32
H      12.34      21.97      19.23
H      12.59      18.33      22.30
H      12.63      18.11      24.63
H      12.63      25.00      22.93
H      12.61      24.78      25.26
H      11.31      23.84      27.74
H      11.62      24.88      20.74
H      11.30      19.27      19.82
H      11.63      18.23      26.82
H       5.67      10.16       9.20
H       3.54       9.43       8.42
H       4.16      10.45      13.12
H      24.41       5.11       8.25
H       1.73       7.04       6.21
H       1.80       5.25       4.63
H      24.46       3.35       6.65
H      22.43       7.41      10.31
H      21.69      12.13      11.16
H      23.85      11.39      10.44
H      20.27       8.16      10.95
H       2.19       7.44       8.61
H      23.85       7.52       8.40
H       0.03      10.13      11.01
H       2.03       9.65      12.36
H       5.43      32.17      37.91
H       3.36      32.91      38.86
H       4.06      33.27      34.07
H      24.45      37.78      39.26
H       1.68      35.73      41.33
H       1.76      37.50      42.94
H      24.52      39.52      40.89
H      22.66      35.57      36.61
H      21.56      30.84      36.54
H      23.67      31.55      37.44
H      20.57      34.85      35.70
H       2.18      35.34      38.93
H      23.81      35.41      39.03
H      25.80      32.84      36.38
H       1.98      33.99      35.02
H       5.62       7.77      36.42
H       3.48       7.00      37.13
H       4.16      11.72      36.26
H      24.44       6.73      41.50
H       1.53       4.66      39.27
H       1.53       2.91      40.89
H      24.42       4.97      43.10
H      22.39       8.94      39.23
H      21.68       9.90      34.53
H      23.83       9.16      35.26
H      20.24       9.61      38.48
H       2.14       7.12      39.11
H      23.80       7.01      39.07
H       0.01       9.67      36.55
H       2.03      10.97      37.05
H       5.59      34.41      11.19
H       3.61      35.42      10.30
H       3.67      30.66      11.27
H      24.28      36.17       6.19
H       1.68      38.02       8.18
H       1.67      39.77       6.56
H      24.26      37.93       4.59
H      22.24      34.01       8.77
H      22.13      33.11      13.54
H      24.13      33.98      12.55
H      20.23      33.20       9.78
H       2.12      35.51       8.31
H      23.80      35.96       8.68
H      25.83      33.16      11.05
H       1.71      31.64      10.32
H      18.35      31.63      33.28
H      16.28      30.89      32.32
H      16.97      30.53      37.12
H      11.54      26.02      31.92
H      14.59      28.07      29.85
H      14.68      26.30      28.24
H      11.61      24.28      30.29
H       9.75      28.23      34.58
H       8.65      32.96      34.65
H      10.75      32.25      33.75
H       7.65      28.94      35.49
H      15.10      28.46      32.26
H      10.89      28.39      32.15
H      12.89      30.96      34.81
H      14.90      29.80      36.16
H      18.59      11.94      14.75
H      16.46      12.67      15.53
H      17.07      11.65      10.83
H      11.49      16.99      15.70
H      14.65      15.05      17.74
H      14.72      16.85      19.32
H      11.55      18.75      17.30
H       9.51      14.69      13.64
H       8.77       9.97      12.79
H      10.93      10.71      13.51
H       7.35      13.93      13.00
H      15.11      14.66      15.34
H      10.94      14.58      15.55
H      12.95      11.97      12.94
H      14.95      12.45      11.59
H      18.51      30.24      12.76
H      16.53      29.24      13.65
H      16.59      34.00      12.68
H      11.36      28.49      17.75
H      14.60      26.64      15.76
H      14.59      24.89      17.39
H      11.34      26.73      19.35
H       9.32      30.65      15.18
H       9.21      31.55      10.41
H      11.21      30.68      11.39
H       7.31      31.46      14.17
H      15.04      29.15      15.64
H      10.88      28.70      15.26
H      12.91      31.50      12.89
H      14.63      33.02      13.63
H      18.54      13.46      34.76
H      16.40      14.23      34.04
H      17.08       9.51      34.92
H      11.51      14.51      29.68
H      14.46      16.57      31.91
H      14.45      18.33      30.30
H      11.50      16.28      28.08
H       9.47      12.30      31.95
H       8.76      11.32      36.64
H      10.92      12.06      35.92
H       7.32      11.63      32.70
H      15.06      14.12      32.07
H      10.88      14.23      32.12
H      12.93      11.56      34.63
H      14.95      10.26      34.13
C      25.52       0.48       0.88
C      25.50      41.74       1.49
C      25.43      41.61       2.90
C      25.37       0.22       3.70
C      25.40       1.50       3.13
C      25.48       1.64       1.71
C      25.53      40.61       0.64
C      25.50       2.91       1.10
C      25.52      -0.25      46.69
C      25.49      41.15      45.86
C      25.42      41.29      44.45
C      25.39       0.01      43.88
C      25.44       1.18      44.67
C      25.50       1.05      46.09
C      25.52      39.88      46.48
C      25.52       2.18      46.94
C      25.15       2.56       3.98
C      25.25       2.40      44.03
C      25.18      40.22      43.60
C      25.25      40.39       3.54
C      12.61      21.49      24.49
C      12.58      20.19      25.10
C      12.52      20.06      26.51
C      12.47      21.23      27.31
C      12.50      22.51      26.73
C      12.58      22.65      25.32
C      12.61      19.06      24.25
C      12.60      23.92      24.70
C      12.60      21.62      23.06
C      12.57      20.46      22.24
C      12.49      20.60      20.82
C      12.46      21.88      20.25
C      12.51      23.05      21.04
C      12.58      22.92      22.46
C      12.59      19.19      22.85
C      12.61      24.05      23.31
C      12.26      23.58      27.58
C      12.33      24.27      20.40
C      12.24      19.53      19.97
C      12.34      18.84      27.16
C       0.14       6.27       7.39
C       2.56       9.45      10.31
C      23.38       9.32      10.30
C       2.77       9.78      11.67
C       4.03      10.25      12.12
C       5.11      10.38      11.23
C       4.90      10.06       9.87
C       3.65       9.62       9.42
C       1.07       6.27       6.32
C       1.11       5.22       5.39
C       0.20       4.15       5.47
C      25.11       4.13       6.54
C      25.08       5.18       7.48
C      22.30       8.42      10.47
C      21.02       8.85      10.86
C      20.78      10.21      11.13
C      21.84      11.13      10.99
C      23.12      10.69      10.58
C      24.66       8.87       9.82
C      24.72       7.86       8.82
C       0.11       7.33       8.36
C       1.30       7.86       8.90
C       1.31       8.91       9.84
C       0.05       9.39      10.30
C       0.13      36.56      40.14
C       2.46      33.51      37.03
C      23.37      33.63      37.12
C       2.69      33.59      35.64
C       3.91      33.17      35.08
C       4.93      32.63      35.90
C       4.70      32.54      37.29
C       3.49      32.98      37.85
C       1.04      36.52      41.22
C       1.09      37.56      42.17
C       0.21      38.65      42.09
C      25.14      38.72      41.00
C      25.10      37.69      40.05
C      22.44      34.57      36.62
C      21.21      34.15      36.07
C      20.86      32.79      36.06
C      21.78      31.84      36.56
C      23.03      32.26      37.08
C      24.62      34.06      37.64
C      24.69      35.05      38.65
C       0.08      35.53      39.15
C       1.27      34.98      38.62
C       1.25      33.99      37.60
C      25.83      33.54      37.12
C       0.07       5.88      40.22
C       2.53       8.91      37.18
C      23.35       8.97      37.32
C       2.76      10.28      36.89
C       4.02      10.72      36.43
C       5.09       9.82      36.26
C       4.86       8.45      36.54
C       3.60       8.01      36.97
C       0.92       4.76      40.08
C       0.91       3.72      41.03
C       0.06       3.77      42.15
C      25.05       4.89      42.31
C      25.06       5.93      41.35
C      22.27       9.13      38.23
C      20.99       9.53      37.80
C      20.76       9.83      36.44
C      21.83       9.71      35.53
C      23.10       9.28      35.96
C      24.62       8.46      37.77
C      24.67       7.43      38.74
C       0.05       6.92      39.24
C       1.25       7.45      38.72
C       1.27       8.44      37.71
C       0.02       8.94      37.26
C       0.07      36.91       7.35
C       2.46      33.63      10.20
C      23.39      34.08      10.56
C       2.52      32.24      10.49
C       3.67      31.66      11.05
C       4.81      32.44      11.29
C       4.78      33.82      10.99
C       3.62      34.40      10.45
C       1.01      37.97       7.42
C       1.00      39.01       6.47
C       0.06      39.02       5.41
C      24.96      37.96       5.33
C      24.97      36.92       6.29
C      22.22      33.87       9.78
C      21.04      33.39      10.37
C      20.99      33.10      11.75
C      22.14      33.32      12.53
C      23.32      33.82      11.95
C      24.62      34.49       9.95
C      24.66      35.48       8.95
C       0.04      35.88       8.34
C       1.24      35.25       8.76
C       1.24      34.24       9.75
C       0.00      33.88      10.33
C      13.04      27.24      31.05
C      15.38      30.29      34.15
C      10.45      30.17      34.07
C      15.61      30.21      35.55
C      16.83      30.62      36.11
C      17.84      31.17      35.29
C      17.62      31.26      33.90
C      16.41      30.82      33.33
C      13.96      27.28      29.97
C      14.01      26.24      29.01
C      13.13      25.15      29.10
C      12.23      25.08      30.18
C      12.18      26.11      31.14
C       9.52      29.23      34.57
C       8.29      29.65      35.11
C       7.94      31.01      35.13
C       8.87      31.96      34.62
C      10.11      31.54      34.11
C      11.71      29.74      33.55
C      11.77      28.75      32.54
C      13.00      28.27      32.03
C      14.19      28.82      32.57
C      14.17      29.81      33.58
C      12.92      30.26      34.06
C      13.06      15.83      16.56
C      15.47      12.65      13.64
C      10.46      12.78      13.65
C      15.69      12.32      12.28
C      16.95      11.85      11.82
C      18.03      11.72      12.72
C      17.82      12.04      14.08
C      16.56      12.47      14.53
C      13.99      15.83      17.62
C      14.03      16.88      18.56
C      13.12      17.95      18.48
C      12.19      17.97      17.41
C      12.16      16.92      16.47
C       9.38      13.68      13.48
C       8.10      13.25      13.09
C       7.86      11.89      12.82
C       8.93      10.97      12.96
C      10.20      11.41      13.37
C      11.74      13.23      14.13
C      11.80      14.24      15.13
C      13.03      14.77      15.59
C      14.22      14.24      15.05
C      14.22      13.19      14.10
C      12.97      12.71      13.65
C      12.98      27.75      16.60
C      15.38      31.03      13.74
C      10.47      30.57      13.39
C      15.43      32.42      13.46
C      16.59      33.00      12.90
C      17.73      32.22      12.65
C      17.70      30.84      12.96
C      16.54      30.25      13.50
C      13.92      26.69      16.53
C      13.92      25.65      17.48
C      12.98      25.64      18.53
C      12.05      26.70      18.61
C      12.05      27.74      17.66
C       9.30      30.79      14.16
C       8.12      31.27      13.58
C       8.07      31.56      12.19
C       9.22      31.34      11.41
C      10.40      30.84      12.00
C      11.70      30.17      14.00
C      11.75      29.18      15.00
C      12.96      28.78      15.61
C      14.16      29.41      15.19
C      14.16      30.42      14.19
C      12.92      30.78      13.62
C      12.99      15.36      30.96
C      15.44      12.32      34.00
C      10.43      12.27      33.86
C      15.68      10.95      34.29
C      16.94      10.51      34.75
C      18.01      11.41      34.92
C      17.78      12.78      34.64
C      16.52      13.22      34.21
C      13.84      16.48      31.10
C      13.84      17.52      30.15
C      12.98      17.47      29.03
C      12.13      16.35      28.88
C      12.14      15.31      29.83
C       9.35      12.11      32.95
C       8.07      11.71      33.38
C       7.84      11.40      34.74
C       8.91      11.51      35.65
C      10.18      11.94      35.22
C      11.70      12.77      33.41
C      11.75      13.81      32.44
C      12.97      14.32      31.94
C      14.17      13.79      32.46
C      14.19      12.79      33.47
C      12.94      12.29      33.91
N      19.54      10.57      11.46
N       0.28       3.16       4.58
N       6.33      10.76      11.59
N      19.71      32.44      35.51
N       0.30      39.63      42.99
N       6.07      32.28      35.33
N      19.52      10.17      36.09
N       0.08       2.72      42.98
N       6.31      10.17      35.89
N      19.94      32.56      12.34
N       0.08      40.07       4.59
N       5.85      31.86      11.88
N       6.79      31.35      35.68
N      13.22      24.17      28.20
N      18.99      31.51      35.86
N       6.63      11.53      12.49
N      13.20      18.94      19.36
N      19.25      11.34      12.36
N       7.02      32.10      11.61
N      13.00      24.59      19.35
N      18.77      32.79      12.07
N       6.61      11.05      35.09
N      13.00      18.52      28.21
N      19.23      11.06      35.28
