16

H       8.02       6.68       8.13
H       6.42       8.13       6.83
H       9.63       9.36       4.26
H      11.23       7.90       5.56
O      10.14       5.43       8.44
O      11.91       6.41       7.44
O       7.51      10.60       3.95
O       5.74       9.62       4.95
C      10.68       6.31       7.64
C       9.72       7.20       6.91
C       8.36       7.27       7.28
C       7.48       8.07       6.57
C       6.97       9.73       4.76
C       7.93       8.83       5.48
C       9.29       8.77       5.11
C      10.17       7.96       5.83
