23

C      16.66       9.91       2.39
C      15.21       5.04       2.01
Zn      14.03       6.15       4.44
Zn      14.57       7.91       1.94
C      15.81       7.15       6.64
Zn      11.97       8.54       3.73
Zn      15.04       9.24       4.73
O      12.29       5.57       5.14
O      10.78       7.06       4.27
O      11.45       9.31       1.97
O      13.34       8.87       0.76
O      14.75       4.82       3.19
O      15.07       6.12       1.34
O      13.87       7.98       3.76
C      12.61      10.77       5.58
O      13.88      10.62       5.54
O      11.73      10.02       5.02
C      11.11       6.06       5.01
O      16.30       8.84       1.78
O      16.29      10.26       3.56
O      16.02       8.33       6.18
O      15.16       6.22       6.05
C      12.20       9.42       0.94
