23

Zn      28.19      23.11      29.94
Zn      28.72      21.35      32.44
Zn      26.13      20.72      30.65
O      30.45      20.42      32.60
O      30.44      19.00      30.82
Zn      29.20      20.02      29.65
C      29.39      24.22      32.37
C      30.81      19.35      31.99
O      30.17      20.93      28.19
O      29.31      23.04      28.32
C      29.96      22.11      27.74
O      26.46      23.69      29.23
O      24.95      22.21      30.11
C      25.28      23.22      29.38
C      26.81      18.48      28.79
O      25.60      19.96      32.40
O      27.49      20.39      33.62
O      28.96      24.44      31.18
O      29.23      23.14      33.04
C      26.35      19.84      33.44
O      28.02      21.28      30.62
O      28.08      18.63      28.83
O      25.93      19.23      29.36
