22

H       0.28       4.57       1.69
H      -3.48       6.50       0.82
H       0.61       4.30      -0.78
H      -2.99       6.18      -1.60
H      -1.85       7.16       7.13
C      -1.74       5.91       2.89
C      -1.61       5.61       1.46
C      -0.46       4.95       0.99
C      -2.56       6.02       0.51
C      -0.27       4.80      -0.37
C      -2.29       5.84      -0.84
C      -1.21       6.64       4.87
C      -2.51       6.13       4.92
C      -3.47       6.02       6.04
C      -0.39       7.37       5.84
N      -1.15       5.27      -1.28
N      -0.73       6.49       3.59
N      -2.84       5.68       3.66
O      -3.15       6.54       7.15
O      -4.56       5.40       5.80
O      -0.88       7.60       7.03
O       0.74       7.78       5.48
