21

O      12.45       9.55       3.20
O      12.55      11.76       3.54
O      16.55      13.60       4.14
O      14.34      13.53       3.80
H      18.82       5.99       5.57
H      16.99       7.65       5.61
H      20.04       7.19       1.78
H      18.40       9.04       1.73
C      13.11      10.63       3.45
C      14.56      10.53       3.61
C      18.66       6.65       4.72
C      17.65       7.60       4.74
C      15.46      12.96       3.90
C      15.55      11.50       3.73
C      19.38       7.36       2.62
C      18.43       8.38       2.60
C      16.50       9.55       3.67
C      17.54       8.50       3.67
N      15.17       9.30       3.59
N      16.77      10.87       3.75
N      19.50       6.51       3.67
