1024

C       2.83       7.70      20.32
C       3.77       6.66      20.62
C       4.29       5.87      19.55
C       3.87       6.10      18.24
C       2.93       7.08      17.91
C       2.42       7.91      18.97
C       4.15       6.44      21.96
C       1.49       8.94      18.72
C       2.30       8.51      21.38
C       2.70       8.27      22.73
C       2.14       9.01      23.81
C       1.25      10.07      23.47
C       0.83      10.36      22.14
C       1.36       9.54      21.10
C       3.62       7.23      22.99
C       0.98       9.73      19.75
C       2.83      48.14      33.16
C       3.77      49.18      32.87
C       4.29      49.97      33.93
C       3.87      49.74      35.25
C       2.93      48.76      35.57
C       2.42      47.93      34.52
C       4.15      49.40      31.53
C       1.49      46.90      34.76
C       2.30      47.33      32.10
C       2.70      47.57      30.75
C       2.14      46.83      29.68
C       1.25      45.77      30.01
C       0.83      45.48      31.35
C       1.36      46.29      32.38
C       3.62      48.61      30.50
C       0.98      46.11      33.73
C      20.99      21.50      46.97
C      20.05      21.79      48.00
C      19.54      20.73      48.79
C      19.96      19.42      48.57
C      20.89      19.09      47.58
C      21.40      20.14      46.75
C      19.67      23.13      48.22
C      22.33      19.90      45.73
C      21.52      22.56      46.15
C      21.13      23.91      46.40
C      21.68      24.98      45.66
C      22.57      24.65      44.60
C      22.99      23.32      44.30
C      22.46      22.28      45.12
C      20.20      24.16      47.43
C      22.84      20.93      44.93
C      20.99      34.34       6.52
C      20.05      34.05       5.48
C      19.53      35.11       4.69
C      19.96      36.42       4.92
C      20.89      36.75       5.91
C      21.40      35.70       6.73
C      19.67      32.71       5.26
C      22.33      35.94       7.76
C      21.52      33.28       7.33
C      21.12      31.93       7.09
C      21.68      30.86       7.83
C      22.57      31.19       8.89
C      22.99      32.53       9.18
C      22.46      33.56       8.37
C      20.20      31.67       6.05
C      22.84      34.91       8.55
C      15.05      20.30      20.32
C      14.12      21.33      20.62
C      13.60      22.11      19.55
C      14.03      21.89      18.24
C      14.96      20.90      17.91
C      15.46      20.08      18.96
C      13.74      21.55      21.96
C      16.40      19.05      18.72
C      15.57      19.50      21.39
C      15.19      19.73      22.74
C      15.75      18.98      23.82
C      16.63      17.93      23.51
C      17.00      17.69      22.18
C      16.50      18.47      21.10
C      14.26      20.77      22.99
C      16.90      18.26      19.76
C      15.05      35.54      33.16
C      14.12      34.51      32.87
C      13.60      33.73      33.94
C      14.03      33.95      35.25
C      14.96      34.94      35.57
C      15.46      35.76      34.52
C      13.74      34.29      31.53
C      16.40      36.79      34.76
C      15.57      36.34      32.10
C      15.19      36.11      30.74
C      15.75      36.85      29.66
C      16.62      37.91      29.97
C      17.00      38.15      31.30
C      16.50      37.37      32.38
C      14.26      35.07      30.49
C      16.90      37.58      33.73
C      20.61       6.47      46.97
C      21.55       6.19      48.01
C      22.06       7.27      48.79
C      21.62       8.58      48.54
C      20.68       8.90      47.52
C      20.19       7.82      46.75
C      21.94       4.85      48.22
C      19.27       8.08      45.71
C      20.09       5.42      46.15
C      20.48       4.07      46.40
C      19.92       3.00      45.65
C      19.04       3.33      44.59
C      18.61       4.67      44.30
C      19.15       5.70      45.12
C      21.41       3.82      47.44
C      18.76       7.05      44.92
C      20.61      49.37       6.51
C      21.56      49.65       5.47
C      22.06      48.57       4.69
C      21.62      47.26       4.95
C      20.68      46.95       5.96
C      20.19      48.03       6.73
C      21.94      50.99       5.26
C      19.27      47.76       7.77
C      20.09      50.42       7.33
C      20.48      51.77       7.09
C      19.92      52.84       7.83
C      19.04      52.51       8.89
C      18.61      51.17       9.19
C      19.15      50.14       8.37
C      21.41      52.02       6.05
C      18.76      48.79       8.56
C      14.68      35.55      48.19
C      15.62      34.51      48.47
C      16.13      33.73      47.39
C      15.69      33.98      46.08
C      14.76      35.00      45.77
C      14.26      35.77      46.84
C      16.01      34.30      49.81
C      13.35      36.81      46.59
C      14.16      36.37      49.25
C      14.55      36.12      50.59
C      14.00      36.87      51.66
C      13.11      37.93      51.33
C      12.68      38.22      50.00
C      13.22      37.40      48.96
C      15.48      35.08      50.84
C      12.83      37.59      47.61
C      14.68      20.29       5.29
C      15.62      21.33       5.01
C      16.13      22.11       6.09
C      15.69      21.86       7.40
C      14.75      20.85       7.72
C      14.26      20.07       6.64
C      16.01      21.54       3.67
C      13.35      19.03       6.90
C      14.16      19.47       4.24
C      14.55      19.72       2.89
C      14.00      18.97       1.82
C      13.11      17.91       2.15
C      12.68      17.62       3.49
C      13.22      18.44       4.53
C      15.48      20.76       2.64
C      12.83      18.25       5.87
C       9.12      49.35      19.12
C       8.19      49.65      20.15
C       7.68      48.58      20.94
C       8.10      47.27      20.71
C       9.03      46.94      19.72
C       9.54      48.00      18.90
C       7.81      50.99      20.37
C      10.47      47.76      17.87
C       9.64      50.42      18.32
C       9.26      51.78      18.55
C       9.82      52.86      17.81
C      10.69      52.55      16.76
C      11.07      51.21      16.51
C      10.57      50.13      17.29
C       8.33      52.03      19.59
C      10.98      48.79      17.08
C       9.12       6.48      34.36
C       8.19       6.19      33.33
C       7.67       7.26      32.55
C       8.10       8.57      32.77
C       9.03       8.90      33.76
C       9.54       7.84      34.58
C       7.81       4.85      33.11
C      10.47       8.08      35.61
C       9.64       5.42      35.17
C       9.26       4.06      34.93
C       9.82       2.98      35.68
C      10.70       3.29      36.73
C      11.08       4.62      36.96
C      10.57       5.70      36.19
C       8.33       3.81      33.90
C      10.97       7.05      36.40
C       3.20      48.16      48.19
C       2.26      49.19      48.47
C       1.76      49.97      47.39
C       2.20      49.72      46.08
C       3.14      48.71      45.76
C       3.63      47.94      46.84
C       1.88      49.41      49.81
C       4.54      46.90      46.58
C       3.71      47.35      49.25
C       3.33      47.59      50.60
C       3.89      46.84      51.68
C       4.77      45.79      51.37
C       5.14      45.55      50.04
C       4.65      46.33      48.96
C       2.40      48.62      50.85
C       5.05      46.11      47.62
C       3.20       7.67       5.29
C       2.26       6.64       5.01
C       1.75       5.87       6.10
C       2.20       6.13       7.40
C       3.14       7.14       7.72
C       3.63       7.90       6.64
C       1.88       6.43       3.67
C       4.54       8.94       6.90
C       3.71       8.49       4.23
C       3.33       8.25       2.88
C       3.89       9.00       1.80
C       4.77      10.06       2.12
C       5.14      10.29       3.46
C       4.64       9.51       4.53
C       2.40       7.22       2.63
C       5.05       9.72       5.87
C       8.76      34.33      19.13
C       9.70      34.05      20.16
C      10.20      35.13      20.94
C       9.77      36.44      20.68
C       8.83      36.76      19.67
C       8.34      35.68      18.90
C      10.09      32.71      20.37
C       7.42      35.94      17.86
C       8.25      33.27      18.32
C       8.64      31.91      18.55
C       8.07      30.84      17.81
C       7.19      31.15      16.75
C       6.83      32.49      16.51
C       7.32      33.56      17.29
C       9.56      31.67      19.59
C       6.92      34.90      17.08
C       8.76      21.51      34.35
C       9.70      21.79      33.32
C      10.21      20.71      32.55
C       9.76      19.40      32.80
C       8.83      19.08      33.82
C       8.34      20.16      34.59
C      10.09      23.13      33.11
C       7.42      19.91      35.62
C       8.25      22.57      35.17
C       8.64      23.92      34.93
C       8.08      25.00      35.67
C       7.20      24.69      36.73
C       6.83      23.36      36.97
C       7.32      22.28      36.20
C       9.56      24.17      33.89
C       6.91      20.94      36.41
C      21.89      13.02      22.49
C      21.25      13.60      23.64
C      20.18      14.54      23.48
C      19.75      14.93      22.19
C      20.41      14.33      21.08
C      21.45      13.41      21.22
C      19.95      14.76      25.84
C      20.98      13.84      26.03
C      22.92      12.07      22.64
C      18.76      15.87      21.85
C      21.89      42.82      30.99
C      21.25      42.24      29.84
C      20.18      41.30      30.00
C      19.75      40.91      31.29
C      20.41      41.51      32.40
C      21.45      42.43      32.27
C      19.95      41.08      27.64
C      20.98      42.00      27.45
C      22.92      43.77      30.85
C      18.76      39.97      31.63
C       1.93      23.67      41.64
C       2.58      24.82      41.06
C       3.64      24.66      40.12
C       4.08      23.37      39.73
C       3.41      22.26      40.33
C       2.37      22.40      41.25
C       3.87      27.02      39.90
C       2.84      27.21      40.83
C       0.90      23.81      42.59
C       5.07      22.98      38.79
C       1.93      32.17      11.84
C       2.57      31.02      12.42
C       3.64      31.18      13.36
C       4.08      32.46      13.74
C       3.41      33.58      13.15
C       2.37      33.45      12.23
C       3.87      28.82      13.58
C       2.84      28.63      12.66
C       0.90      32.03      10.89
C       5.06      32.75      14.70
C      15.97       4.31      41.64
C      15.32       3.16      41.07
C      14.26       3.32      40.12
C      13.83       4.60      39.73
C      14.48       5.72      40.33
C      15.52       5.59      41.25
C      14.02       0.96      39.90
C      15.05       0.77      40.83
C      16.99       4.17      42.59
C      12.82       4.91      38.80
C      15.97      51.53      11.84
C      15.32      52.68      12.42
C      14.25      52.51      13.37
C      13.82      51.22      13.75
C      14.49      50.12      13.15
C      15.52      50.25      12.23
C      14.02      54.88      13.58
C      15.05      55.07      12.66
C      16.99      51.67      10.89
C      12.83      50.84      14.69
C      10.04      40.88      50.35
C       9.39      41.45      51.50
C       8.32      42.40      51.34
C       7.89      42.78      50.05
C       8.56      42.19      48.94
C       9.59      41.27      49.07
C       8.09      42.61      53.70
C       9.12      41.69      53.89
C      11.06      39.93      50.49
C       6.90      43.73      49.71
C      10.04      14.96       3.14
C       9.39      14.39       1.98
C       8.33      13.45       2.15
C       7.89      13.06       3.43
C       8.55      13.65       4.55
C       9.59      14.57       4.42
C       8.09      13.23      55.50
C       9.12      14.15      55.31
C      11.06      15.91       2.99
C       6.90      12.11       3.73
C       3.90       8.45      27.09
C       4.63       9.39      27.90
C       5.36       8.97      29.07
C       5.43       7.60      29.45
C       4.74       6.69      28.60
C       4.02       7.09      27.46
C       5.97      11.25      29.50
C       5.29      11.66      28.36
C       3.29       8.88      25.87
C       6.07       6.94      30.55
C       3.90      47.39      26.39
C       4.63      46.45      25.59
C       5.37      46.87      24.42
C       5.43      48.24      24.03
C       4.74      49.14      24.89
C       4.02      48.75      26.03
C       5.97      44.59      23.99
C       5.29      44.18      25.13
C       3.28      46.95      27.61
C       6.07      48.90      22.93
C      19.92      28.27      46.21
C      19.19      29.08      45.27
C      18.46      30.25      45.69
C      18.39      30.63      47.07
C      19.08      29.78      47.97
C      19.80      28.64      47.57
C      17.85      30.68      43.41
C      18.54      29.53      43.00
C      20.54      27.06      45.77
C      17.75      31.74      47.72
C      19.92      27.57       7.27
C      19.19      26.76       8.21
C      18.46      25.59       7.79
C      18.39      25.21       6.42
C      19.08      26.06       5.52
C      19.80      27.20       5.91
C      17.85      25.16      10.07
C      18.54      26.31      10.49
C      20.53      28.79       7.70
C      17.75      24.10       5.76
C      13.99      19.53      27.10
C      13.26      18.59      27.90
C      12.53      19.02      29.07
C      12.46      20.39      29.46
C      13.15      21.29      28.60
C      13.87      20.90      27.46
C      11.92      16.73      29.50
C      12.61      16.32      28.36
C      14.60      19.11      25.88
C      11.82      21.05      30.56
C      13.99      36.31      26.39
C      13.26      37.25      25.59
C      12.53      36.83      24.42
C      12.46      35.45      24.03
C      13.15      34.55      24.88
C      13.87      34.94      26.03
C      11.92      39.11      23.99
C      12.61      39.52      25.13
C      14.60      36.74      27.60
C      11.82      34.80      22.93
C      21.68      55.43      46.21
C      22.42      54.62      45.27
C      23.15      53.45      45.69
C      23.22      53.06      47.07
C      22.53      53.92      47.97
C      21.80      55.06      47.58
C       0.05      53.02      43.41
C      23.07      54.16      43.00
C      21.07       0.93      45.78
C       0.14      51.96      47.72
C      21.68       0.42       7.27
C      22.42       1.22       8.21
C      23.15       2.39       7.79
C      23.21       2.78       6.41
C      22.52       1.92       5.51
C      21.80       0.78       5.91
C       0.05       2.82      10.07
C      23.07       1.68      10.49
C      21.07      54.91       7.71
C       0.15       3.88       5.75
C      15.76      36.31      54.95
C      16.49      37.25       0.04
C      17.22      36.83       1.21
C      17.29      35.45       1.60
C      16.60      34.55       0.74
C      15.88      34.94      55.31
C      17.83      39.11       1.64
C      17.14      39.52       0.50
C      15.15      36.73      53.73
C      17.93      34.80       2.70
C      15.76      19.53      54.25
C      16.49      18.59      53.44
C      17.22      19.01      52.27
C      17.29      20.39      51.89
C      16.60      21.29      52.74
C      15.88      20.90      53.88
C      17.83      16.73      51.84
C      17.14      16.32      52.98
C      15.15      19.10      55.47
C      17.93      21.04      50.79
C       8.07       0.42      18.35
C       7.33       1.22      17.41
C       6.60       2.39      17.83
C       6.53       2.77      19.21
C       7.22       1.92      20.11
C       7.95       0.78      19.72
C       5.99       2.82      15.56
C       6.68       1.68      15.14
C       8.68      54.92      17.92
C       5.90       3.87      19.87
C       8.06      55.42      35.13
C       7.33      54.62      36.07
C       6.60      53.45      35.65
C       6.53      53.06      34.28
C       7.22      53.92      33.37
C       7.94      55.06      33.77
C       5.99      53.02      37.93
C       6.68      54.16      38.34
C       8.67       0.93      35.56
C       5.90      51.96      33.62
C       2.13      47.39      54.95
C       1.40      46.45       0.04
C       0.67      46.88       1.21
C       0.60      48.25       1.60
C       1.29      49.15       0.74
C       2.01      48.75      55.32
C       0.06      44.59       1.64
C       0.75      44.18       0.50
C       2.74      46.96      53.73
C      23.68      48.91       2.71
C       2.14       8.45      54.25
C       1.40       9.39      53.44
C       0.67       8.97      52.27
C       0.61       7.60      51.89
C       1.30       6.69      52.74
C       2.02       7.09      53.88
C       0.06      11.25      51.84
C       0.75      11.66      52.98
C       2.74       8.88      55.46
C      23.68       6.94      50.78
C       9.83      27.57      18.35
C      10.56      26.76      17.41
C      11.29      25.59      17.83
C      11.36      25.21      19.21
C      10.67      26.06      20.11
C       9.95      27.20      19.72
C      11.90      25.16      15.56
C      11.22      26.31      15.14
C       9.21      28.78      17.92
C      12.00      24.11      19.87
C       9.83      28.27      35.13
C      10.56      29.08      36.07
C      11.29      30.24      35.65
C      11.36      30.63      34.27
C      10.67      29.78      33.37
C       9.95      28.64      33.77
C      11.90      30.68      37.93
C      11.22      29.53      38.34
C       9.22      27.06      35.56
C      12.00      31.73      33.62
C       2.49       7.82      14.32
C       2.59       8.95      13.46
C       2.76       8.77      12.04
C       2.88       7.47      11.46
C       2.73       6.38      12.36
C       2.56       6.53      13.74
C       2.76      11.15      11.75
C       2.63      11.33      13.13
C       2.40       7.96      15.71
C       2.95       7.08      10.11
C       2.49      48.02      39.16
C       2.59      46.89      40.03
C       2.76      47.07      41.44
C       2.87      48.37      42.02
C       2.73      49.46      41.12
C       2.56      49.31      39.74
C       2.76      44.69      41.74
C       2.63      44.51      40.36
C       2.40      47.88      37.77
C       2.95      48.76      43.38
C      21.33      15.50      46.85
C      21.23      14.64      45.71
C      21.06      13.22      45.89
C      20.94      12.64      47.19
C      21.09      13.54      48.28
C      21.26      14.92      48.13
C      21.06      12.93      43.52
C      21.20      14.30      43.33
C      21.42      16.89      46.70
C      20.87      11.28      47.59
C      21.33      40.34       6.64
C      21.23      41.20       7.77
C      21.06      42.62       7.59
C      20.94      43.20       6.29
C      21.09      42.30       5.20
C      21.26      40.92       5.35
C      21.06      42.91       9.97
C      21.20      41.54      10.16
C      21.42      38.95       6.78
C      20.87      44.56       5.90
C      15.40      20.17      14.32
C      15.30      19.03      13.46
C      15.13      19.21      12.04
C      15.02      20.51      11.46
C      15.16      21.60      12.36
C      15.33      21.45      13.74
C      15.13      16.84      11.75
C      15.27      16.65      13.13
C      15.50      20.02      15.71
C      14.95      20.90      10.10
C      15.40      35.67      39.16
C      15.30      36.81      40.03
C      15.13      36.63      41.44
C      15.01      35.33      42.02
C      15.16      34.24      41.12
C      15.33      34.39      39.74
C      15.13      39.00      41.74
C      15.27      39.19      40.36
C      15.50      35.82      37.77
C      14.94      34.93      43.38
C       9.47      43.36      18.99
C       9.37      42.49      17.85
C       9.20      41.08      18.04
C       9.09      40.50      19.34
C       9.23      41.40      20.43
C       9.40      42.78      20.27
C       9.20      40.78      15.66
C       9.34      42.16      15.47
C       9.57      44.75      18.84
C       9.02      39.14      19.73
C       9.47      12.48      34.49
C       9.37      13.35      35.63
C       9.20      14.76      35.45
C       9.09      15.34      34.15
C       9.23      14.44      33.06
C       9.40      13.06      33.21
C       9.20      15.06      37.83
C       9.34      13.68      38.01
C       9.57      11.09      34.64
C       9.01      16.70      33.75
H       4.26       5.51      17.49
H       0.89      10.59      24.27
H       3.95       7.02      23.93
H       4.82       5.71      22.20
H       0.30      10.46      19.49
H       1.12       9.12      17.80
H       4.26      50.33      36.00
H       0.89      45.25      29.21
H       3.95      48.82      29.55
H       4.82      50.13      31.29
H       0.30      45.38      33.99
H       1.12      46.72      35.68
H      19.57      18.66      49.15
H      22.93      25.45      44.08
H      19.87      25.11      47.64
H      19.00      23.38      48.95
H      23.52      20.67      44.20
H      22.70      18.98      45.55
H      19.57      37.18       4.33
H      22.93      30.39       9.41
H      19.87      30.73       5.84
H      19.00      32.46       4.53
H      23.52      35.17       9.28
H      22.70      36.86       7.94
H      13.64      22.48      17.48
H      17.04      17.37      24.26
H      13.94      20.97      23.94
H      13.07      22.28      22.20
H      17.58      17.54      19.51
H      16.77      18.87      17.80
H      13.64      33.36      36.00
H      17.04      38.47      29.22
H      13.93      34.87      29.55
H      13.07      33.56      31.29
H      17.58      38.30      33.97
H      16.77      36.97      35.68
H      22.04       9.33      49.10
H      18.68       2.53      44.07
H      21.74       2.87      47.64
H      22.61       4.61      48.95
H      18.09       7.31      44.20
H      18.95       9.02      45.52
H      22.03      46.51       4.40
H      18.68      53.31       9.41
H      21.74      52.97       5.84
H      22.61      51.23       4.53
H      18.09      48.53       9.29
H      18.95      46.82       7.97
H      16.11      33.42      45.34
H      12.75      38.45      52.13
H      15.81      34.88      51.79
H      16.68      33.57      50.05
H      12.16      38.32      47.35
H      13.02      37.00      45.64
H      16.11      22.42       8.14
H      12.75      17.39       1.36
H      15.81      20.96       1.69
H      16.68      22.27       3.43
H      12.16      17.52       6.13
H      13.02      18.84       7.85
H       7.71      46.52      21.30
H      11.11      53.31      16.20
H       8.00      52.97      19.80
H       7.14      51.23      21.10
H      11.65      48.55      16.36
H      10.84      46.84      17.69
H       7.71       9.32      32.19
H      11.12       2.55      37.30
H       8.01       2.87      33.69
H       7.14       4.61      32.38
H      11.65       7.30      37.12
H      10.84       9.01      35.79
H       1.78      50.28      45.34
H       5.19      45.23      52.12
H       2.08      48.83      51.80
H       1.21      50.14      50.05
H       5.72      45.38      47.37
H       4.87      46.70      45.64
H       1.79       5.57       8.15
H       5.19      10.62       1.37
H       2.08       7.01       1.69
H       1.21       5.70       3.43
H       5.72      10.45       6.12
H       4.87       9.14       7.85
H      10.18      37.18      21.24
H       6.77      30.40      16.19
H       9.89      30.73      19.80
H      10.76      32.47      21.10
H       6.25      35.15      16.35
H       7.09      36.88      17.66
H      10.18      18.65      32.24
H       6.79      25.45      37.28
H       9.89      25.12      33.69
H      10.76      23.37      32.38
H       6.24      20.70      37.14
H       7.09      18.96      35.82
H      19.47      15.18      26.64
H      21.88      13.03      20.37
H      20.16      14.57      20.12
H      22.28      12.68      25.18
H      23.16      11.91      23.55
H      18.64      15.84      20.87
H      19.47      40.66      26.84
H      21.88      42.81      33.12
H      20.16      41.27      33.37
H      22.28      43.16      28.30
H      23.16      43.93      29.93
H      18.64      40.01      32.60
H       4.35      27.82      39.48
H       1.94      21.55      41.63
H       3.66      21.29      40.10
H       1.55      26.36      41.99
H       0.66      24.73      42.75
H       5.19      22.01      38.81
H       4.35      28.02      14.00
H       1.94      34.30      11.85
H       3.67      34.55      13.40
H       1.55      29.48      11.50
H       0.66      31.11      10.74
H       5.17      33.72      14.66
H      13.54       0.16      39.48
H      15.95       6.44      41.63
H      14.23       6.69      40.09
H      16.35       1.62      41.99
H      17.23       3.25      42.75
H      12.72       5.88      38.84
H      13.54      55.68      14.00
H      15.95      49.40      11.85
H      14.24      49.15      13.39
H      16.35      54.22      11.50
H      17.24      52.59      10.74
H      12.70      49.86      14.67
H       7.62      43.04      54.50
H      10.02      40.89      48.22
H       8.30      42.43      47.97
H      10.42      40.53      53.04
H      11.31      39.77      51.41
H       6.78      43.69      48.74
H       7.62      12.80      54.70
H      10.03      14.95       5.26
H       8.30      13.41       5.51
H      10.42      15.31       0.45
H      11.31      16.07       2.08
H       6.80      12.15       4.70
H       6.46      11.93      30.09
H       3.58       6.35      26.89
H       4.75       5.69      28.79
H       4.17      11.13      26.87
H       3.72       9.68      25.50
H       5.89       5.97      30.63
H       6.46      43.91      23.40
H       3.58      49.48      26.59
H       4.74      50.15      24.70
H       4.17      44.71      26.61
H       3.72      46.16      27.98
H       5.88      49.87      22.86
H      17.37      31.27      42.73
H      20.24      28.07      48.31
H      19.08      29.97      48.97
H      19.65      28.05      43.53
H      20.10      26.68      44.98
H      17.94      31.81      48.69
H      17.37      24.57      10.75
H      20.24      27.77       5.18
H      19.08      25.87       4.51
H      19.65      27.79       9.95
H      20.10      29.16       8.50
H      17.94      24.03       4.79
H      11.44      16.06      30.09
H      14.31      21.63      26.89
H      13.15      22.30      28.79
H      13.72      16.85      26.87
H      14.17      18.31      25.50
H      12.00      22.02      30.64
H      11.44      39.78      23.40
H      14.31      34.21      26.59
H      13.15      33.54      24.69
H      13.72      38.99      26.61
H      14.17      37.54      27.98
H      12.01      33.83      22.85
H       0.53      52.43      42.73
H      21.37      55.63      48.31
H      22.53      53.73      48.97
H      21.96      55.65      43.53
H      21.51       1.31      44.98
H      23.67      51.89      48.69
H       0.53       3.41      10.75
H      21.37       0.21       5.18
H      22.53       2.11       4.51
H      21.96       0.19       9.95
H      21.51      54.53       8.50
H       0.01       3.94       4.77
H      18.31      39.78       2.23
H      15.44      34.21      54.75
H      16.60      33.54       0.93
H      16.03      38.99      54.73
H      15.58      37.54      53.36
H      17.74      33.83       2.77
H      18.31      16.05      51.25
H      15.44      21.63      54.45
H      16.60      22.29      52.55
H      16.03      16.85      54.47
H      15.58      18.30       0.13
H      17.74      22.01      50.71
H       5.51       3.41      14.88
H       8.39       0.21      20.45
H       7.22       2.11      21.12
H       7.79       0.19      15.67
H       8.24      54.54      17.12
H       6.09       3.95      20.84
H       5.51      52.43      38.61
H       8.38      55.63      33.03
H       7.22      53.73      32.37
H       7.79      55.65      37.81
H       8.24       1.30      36.36
H       6.08      51.89      32.65
H      23.29      43.91       2.23
H       2.45      49.49      54.75
H       1.29      50.16       0.94
H       1.86      44.71      54.73
H       2.31      46.16      53.36
H       0.12      49.89       2.78
H      23.29      11.93      51.25
H       2.46       6.35      54.45
H       1.29       5.69      52.55
H       1.86      11.13      54.47
H       2.31       9.68       0.12
H       0.15       5.97      50.71
H      12.39      24.57      14.88
H       9.51      27.77      20.45
H      10.67      25.87      21.12
H      10.10      27.79      15.67
H       9.65      29.16      17.12
H      11.81      24.04      20.84
H      12.39      31.26      38.61
H       9.51      28.07      33.03
H      10.67      29.97      32.37
H      10.10      28.05      37.81
H       9.66      26.68      36.36
H      11.81      31.80      32.65
H       2.83      11.95      11.12
H       2.50       5.69      14.32
H       2.76       5.41      12.03
H       2.45      10.47      14.86
H       2.30       8.85      16.08
H       2.66       6.14       9.97
H       2.83      43.89      42.36
H       2.50      50.15      39.17
H       2.76      50.43      41.46
H       2.45      45.37      38.63
H       2.30      46.98      37.41
H       2.66      49.70      43.51
H      20.99      12.30      42.71
H      21.33      15.49      48.97
H      21.06      13.20      49.25
H      21.37      16.03      44.19
H      21.52      17.25      45.81
H      21.16      11.15      48.52
H      20.99      43.54      10.77
H      21.33      40.35       4.51
H      21.06      42.64       4.23
H      21.37      39.81       9.29
H      21.52      38.59       7.68
H      21.16      44.69       4.96
H      15.07      16.03      11.12
H      15.40      22.30      14.31
H      15.14      22.57      12.02
H      15.45      17.51      14.86
H      15.59      19.13      16.08
H      15.24      21.84       9.97
H      15.07      39.81      42.36
H      15.40      33.54      39.17
H      15.13      33.27      41.46
H      15.45      38.33      38.63
H      15.59      36.71      37.41
H      15.23      34.00      43.51
H       9.14      40.16      14.86
H       9.47      43.35      21.12
H       9.21      41.06      21.39
H       9.52      43.89      16.33
H       9.66      45.11      17.95
H       9.31      39.01      20.66
H       9.14      15.68      38.63
H       9.47      12.49      32.37
H       9.21      14.78      32.09
H       9.52      11.95      37.15
H       9.66      10.73      35.53
H       9.30      16.83      32.82
N       2.73       7.09      16.59
N       5.09       4.83      19.59
N      23.59      11.31      21.83
N       2.34       8.51      25.08
N       2.73      48.75      36.90
N       5.09      51.01      33.89
N      23.59      44.53      31.65
N       2.34      47.33      28.41
N      21.09      17.76      47.57
N      18.73      20.77      49.83
N       0.23      23.01      43.35
N      21.48      26.25      46.16
N      21.09      38.08       5.91
N      18.73      35.08       3.65
N       0.23      32.83      10.14
N      21.48      29.59       7.34
N      15.16      20.90      16.58
N      12.80      23.15      19.59
N      17.89      16.77      22.01
N      15.55      19.48      25.09
N      15.16      34.94      36.90
N      12.80      32.68      33.90
N      17.88      39.07      31.48
N      15.55      36.36      28.40
N      20.54      10.17      47.03
N      22.87       7.24      49.83
N      17.66       4.97      43.35
N      20.13       1.73      46.15
N      20.54      45.67       6.45
N      22.88      48.54       3.63
N      17.66      50.87      10.14
N      20.13      54.11       7.33
N      14.61      35.48      44.50
N      16.94      32.68      47.43
N      11.74      39.17      49.69
N      14.19      36.37      52.93
N      14.60      20.36       8.99
N      16.94      23.15       6.05
N      11.74      16.67       3.79
N      14.19      19.47       0.55
N       9.23      45.62      19.72
N       6.87      48.63      21.98
N      11.97      51.12      15.59
N       9.62      54.12      18.31
N       9.24      10.22      33.77
N       6.87       7.23      31.50
N      11.94       4.87      37.89
N       9.63       1.72      35.19
N       3.29      48.22      44.49
N       0.95      51.01      47.43
N       6.03      44.63      49.86
N       3.70      47.33      52.95
N       3.28       7.62       8.99
N       0.94       4.81       6.12
N       6.02      11.20       3.66
N       3.69       8.50       0.54
N       8.68      38.03      19.18
N      11.02      35.09      21.98
N       5.95      32.70      15.60
N       8.27      29.58      18.31
N       8.68      17.82      34.31
N      11.02      20.71      31.50
N       5.92      23.26      37.90
N       8.27      26.27      35.18
N      19.59      15.07      24.58
N      21.58      13.30      24.95
N      19.59      40.77      28.90
N      21.58      42.54      28.54
N       4.24      25.76      39.59
N       2.24      26.13      41.36
N       4.23      30.08      13.89
N       2.24      29.72      12.12
N      13.66       2.23      39.59
N      15.65       1.86      41.36
N      13.66      53.62      13.90
N      15.65      53.98      12.12
N       7.73      42.93      52.44
N       9.72      41.15      52.81
N       7.73      12.91       1.05
N       9.72      14.68       0.68
N       5.99       9.93      29.80
N       4.65      10.74      27.61
N       5.99      45.91      23.68
N       4.65      45.10      25.87
N      17.83      30.98      44.73
N      19.17      28.79      43.92
N      17.83      24.86       8.75
N      19.17      27.05       9.56
N      11.90      18.06      29.80
N      13.24      17.24      27.61
N      11.90      37.78      23.68
N      13.24      38.60      25.87
N       0.06      52.71      44.73
N      22.44      54.91      43.92
N       0.06       3.13       8.75
N      22.44       0.93       9.56
N      17.85      37.78       1.95
N      16.51      38.60      55.47
N      17.85      18.05      51.54
N      16.51      17.24      53.73
N       5.97       3.13      16.88
N       7.31       0.93      16.06
N       5.97      52.71      36.61
N       7.31      54.91      37.42
N       0.04      45.91       1.95
N       1.38      45.10      55.47
N       0.04       9.93      51.54
N       1.38      10.74      53.73
N      11.92      24.86      16.88
N      10.58      27.05      16.06
N      11.92      30.98      36.61
N      10.58      28.79      37.42
N       2.83       9.88      11.26
N       2.54      10.25      13.92
N       2.83      45.96      42.22
N       2.54      45.59      39.56
N      20.99      12.44      44.78
N      21.28      15.10      44.41
N      20.99      43.40       8.70
N      21.28      40.74       9.07
N      15.07      18.10      11.26
N      15.35      17.73      13.92
N      15.06      37.74      42.22
N      15.35      38.11      39.56
N       9.14      40.30      16.92
N       9.42      42.96      16.56
N       9.14      15.54      36.56
N       9.42      12.88      36.93
O      21.37      13.48      27.27
O      21.37      42.36      26.21
O       2.45      28.45      41.18
O       2.45      27.39      12.31
O      15.44      55.24      41.18
O      15.44       0.60      12.31
O       9.52      41.34      55.13
O       9.52      14.50      54.07
O       5.23      12.97      28.00
O       5.23      42.87      25.48
O      18.59      29.18      41.69
O      18.59      26.66      11.79
O      12.66      15.01      28.00
O      12.66      40.83      25.48
O      23.02      54.52      41.69
O      23.02       1.32      11.79
O      17.09      40.83       0.15
O      17.09      15.01      53.34
O       6.73       1.32      13.84
O       6.73      54.52      39.65
O       0.80      42.87       0.15
O       0.80      12.97      53.34
O      11.16      26.66      13.84
O      11.16      29.18      39.65
O       2.57      12.58      13.66
O       2.57      43.26      39.82
O      21.25      14.84      42.09
O      21.25      41.00      11.40
O      15.32      15.41      13.66
O      15.32      40.43      39.82
O       9.39      42.69      14.23
O       9.39      13.15      39.25
