306

Mg      11.69      -8.17      15.52
Mg      12.01      -5.91      12.88
Mg      11.71      14.24      12.33
Mg      11.69       2.38       5.49
Mg      12.01       3.54       8.76
Mg      11.71       5.67       6.16
Mg      11.69       5.79      19.64
Mg      12.01       2.38      19.01
Mg      11.71      15.29       1.83
Mg       3.47       8.17      15.51
Mg       3.79       5.92      12.88
Mg       3.49       9.23      12.33
Mg       3.47      -2.38       5.49
Mg       3.79      -3.54       8.76
Mg       3.49      17.80       6.16
Mg       3.47      -5.79      19.64
Mg       3.79      -2.38      19.00
Mg       3.49       8.17       1.83
H       1.07      -3.09      15.44
H      15.51      -4.09      14.30
H      14.93      -6.72      17.64
H       0.47      -5.72      18.79
H       8.34      12.08      12.53
H       6.35      10.58      12.78
H       6.12      11.63      16.95
H       8.12      13.14      16.67
H       8.88      14.64       9.17
H       6.88      15.11       7.70
H       6.72      -4.34       9.24
H       8.73      -4.82      10.67
H       1.07      -0.09       9.93
H      15.51       1.39       9.63
H      14.93      -0.19       5.68
H       0.47      -1.68       5.97
H       8.34       6.58       4.20
H       6.35       7.10       2.77
H       6.12       2.97       1.60
H       8.11       2.46       3.05
H       8.88       8.20       8.09
H       6.88       9.24       9.23
H       6.72       5.90      11.94
H       8.73       4.90      10.81
H       1.07       3.18      15.28
H      15.51       2.70      16.72
H      14.93       6.91      17.32
H       0.47       7.40      15.88
H       8.34      16.54       3.60
H       6.35      17.52       4.77
H       6.12      20.60       1.77
H       8.12      19.60       0.60
H       8.88      12.36       3.06
H       6.88      10.85       3.38
H       6.72      -1.55      19.46
H       8.73      -0.08      19.16
H       9.30       3.09      15.44
H       7.29       4.09      14.30
H       6.71       6.72      17.64
H       8.70       5.72      18.79
H       0.11      11.39      12.53
H      14.57      12.89      12.79
H      14.34      11.83      16.95
H      16.34      10.32      16.67
H       0.65       8.83       9.17
H      15.10       8.35       7.70
H      14.95       4.34       9.25
H       0.51       4.82      10.67
H       9.29       0.09       9.93
H       7.29      -1.40       9.63
H       6.70       0.19       5.68
H       8.69       1.68       5.97
H       0.11      16.88       4.19
H      14.57      16.36       2.77
H      14.34      20.50       1.60
H      16.34      21.01       3.04
H       0.65      15.26       8.09
H      15.11      14.23       9.24
H      14.95      -5.90      11.94
H       0.51      -4.90      10.82
H       9.30      -3.18      15.28
H       7.28      -2.70      16.71
H       6.70      -6.90      17.32
H       8.69      -7.40      15.88
H       0.11       6.92       3.60
H      14.57       5.95       4.77
H      14.34       2.87       1.77
H      16.34       3.87       0.60
H       0.65      11.11       3.06
H      15.11      12.62       3.39
H      14.95       1.56      19.46
H       0.51       0.08      19.16
C       0.89      -4.34      17.18
C       0.50      -3.89      15.90
C      15.83      -4.44      15.28
C      15.09      -5.45      15.92
C      15.51      -5.92      17.17
C       0.17      -5.37      17.80
C       2.01      -3.64      17.85
C      13.85      -5.98      15.27
C       8.35      12.68      14.59
C       7.84      11.97      13.48
C       6.73      11.15      13.63
C       6.12      11.01      14.89
C       6.61      11.75      15.99
C       7.71      12.58      15.83
C       9.60      13.48      14.44
C       5.05      10.02      15.12
C       8.92      16.62      10.00
C       8.40      15.61       9.17
C       7.29      15.87       8.36
C       6.68      17.13       8.41
C       7.19      -5.33       9.24
C       8.31      -5.58      10.02
C      10.10      16.36      10.88
C       5.49      17.40       7.57
C       0.89      -0.97       7.98
C       0.50      -0.10       9.00
C      15.83       0.72       8.84
C      15.09       0.67       7.65
C      15.50      -0.18       6.61
C       0.17      -1.00       6.77
C       2.01      -1.90       8.24
C      13.85       1.50       7.51
C       8.35       4.50       3.68
C       7.84       5.80       3.63
C       6.73       6.09       2.84
C       6.12       5.06       2.09
C       6.61       3.75       2.18
C       7.71       3.46       2.98
C       9.60       4.22       4.46
C       5.04       5.36       1.12
C       8.91       6.50       9.40
C       8.40       7.72       8.93
C       7.29       8.29       9.56
C       6.68       7.62      10.63
C       7.19       6.39      11.09
C       8.31       5.84      10.48
C      10.10       5.87       8.73
C       5.49       8.21      11.28
C       0.89       5.31      15.49
C       0.50       3.98      15.74
C      15.84       3.72      16.53
C      15.09       4.78      17.08
C      15.51       6.10      16.87
C       0.17       6.37      16.07
C       2.01       5.55      14.55
C      13.85       4.48      17.87
C       8.35      18.03       2.05
C       7.84      17.42       3.21
C       6.73      17.97       3.85
C       6.12      19.13       3.34
C       6.61      19.71       2.15
C       7.71      19.16       1.51
C       9.60      17.49       1.43
C       5.05      19.82       4.08
C       8.91      12.08       0.93
C       8.40      11.87       2.22
C       7.29      11.04       2.40
C       6.67      10.45       1.28
C       7.19      -1.07      20.31
C       8.31      -0.26      20.14
C      10.10      12.97       0.72
C       5.49       9.59       1.47
C       9.11       4.34      17.18
C       8.72       3.89      15.90
C       7.61       4.44      15.28
C       6.87       5.45      15.92
C       7.28       5.93      17.17
C       8.40       5.37      17.80
C      10.24       3.65      17.85
C       5.63       5.98      15.27
C       0.13      10.79      14.59
C      16.06      11.49      13.48
C      14.95      12.32      13.63
C      14.35      12.45      14.90
C      14.83      11.72      15.99
C      15.94      10.88      15.83
C       1.38       9.98      14.44
C      13.27      13.45      15.12
C       0.69       6.85       9.99
C       0.17       7.86       9.17
C      15.51       7.60       8.36
C      14.90       6.33       8.41
C      15.41       5.33       9.24
C       0.09       5.58      10.02
C       1.88       7.11      10.87
C      13.71       6.07       7.57
C       9.11       0.97       7.98
C       8.72       0.10       9.01
C       7.61      -0.72       8.84
C       6.87      -0.67       7.65
C       7.28       0.17       6.61
C       8.40       1.00       6.77
C      10.24       1.90       8.24
C       5.63      -1.50       7.51
C       0.13      18.97       3.68
C      16.06      17.67       3.63
C      14.95      17.38       2.84
C      14.35      18.40       2.09
C      14.83      19.72       2.18
C      15.94      20.00       2.98
C       1.38      19.24       4.46
C      13.27      18.10       1.12
C       0.69      16.97       9.40
C       0.17      15.75       8.94
C      15.52      15.18       9.56
C      14.90      15.85      10.63
C      15.41      -6.39      11.09
C       0.08      -5.84      10.48
C       1.88      17.60       8.73
C      13.71      15.25      11.28
C       9.11      -5.31      15.49
C       8.72      -3.98      15.74
C       7.61      -3.72      16.53
C       6.87      -4.77      17.08
C       7.28      -6.10      16.87
C       8.40      -6.37      16.07
C      10.24      -5.55      14.56
C       5.62      -4.48      17.87
C       0.12       5.44       2.05
C      16.06       6.04       3.21
C      14.95       5.50       3.85
C      14.35       4.34       3.34
C      14.83       3.76       2.15
C      15.93       4.31       1.51
C       1.38       5.97       1.43
C      13.27       3.65       4.08
C       0.69      11.39       0.93
C       0.17      11.60       2.22
C      15.52      12.43       2.40
C      14.90      13.02       1.28
C      15.41       1.07      20.31
C       0.08       0.26      20.14
C       1.88      10.49       0.71
C      13.71      13.88       1.47
O       2.50      -4.11      18.98
O       2.49      -2.58      17.36
O      13.17      -6.84      15.92
O      13.57      -5.53      14.10
O      10.19      13.43      13.30
O      10.00      14.16      15.45
O       4.64       9.75      16.29
O       4.56       9.35      14.11
O      10.44      15.15      11.05
O      10.66      -6.08      11.40
O       5.15      16.62       6.62
O       4.77      18.46       7.79
O       2.51      -2.65       7.28
O       2.49      -2.01       9.41
O      13.16       1.36       6.44
O      13.57       2.28       8.48
O      10.19       5.24       4.97
O      10.00       3.01       4.54
O       4.64       4.48       0.30
O       4.56       6.58       1.04
O      10.44       6.32       7.59
O      10.66       4.90       9.36
O       5.15       9.43      11.08
O       4.77       7.49      12.09
O       2.51       6.76      14.39
O       2.49       4.59      13.87
O      13.16       5.47      18.28
O      13.57       3.25      18.06
O      10.19      16.54       2.05
O      10.00      18.03       0.34
O       4.64      20.96       3.73
O       4.56      19.28       5.17
O      10.44      13.73       1.68
O      10.66       1.17      19.89
O       5.15       9.16       2.62
O       4.77       9.25       0.44
O      10.73       4.11      18.98
O      10.71       2.58      17.36
O       4.94       6.84      15.92
O       5.34       5.53      14.10
O       1.96      10.04      13.30
O       1.78       9.31      15.44
O      12.86      13.71      16.29
O      12.79      14.12      14.11
O       2.22       8.32      11.05
O       2.44       6.08      11.39
O      13.37       6.85       6.62
O      13.00       5.01       7.79
O      10.73       2.65       7.28
O      10.71       2.01       9.41
O       4.94      -1.36       6.44
O       5.34      -2.29       8.48
O       1.96      18.23       4.98
O       1.78      20.46       4.54
O      12.86      18.98       0.30
O      12.79      16.89       1.04
O       2.22      17.15       7.59
O       2.43      -4.90       9.36
O      13.38      14.04      11.08
O      13.00      15.98      12.09
O      10.73      -6.76      14.39
O      10.71      -4.59      13.87
O       4.94      -5.47      18.28
O       5.34      -3.25      18.06
O       1.96       6.93       2.05
O       1.78       5.44       0.34
O      12.86       2.50       3.73
O      12.79       4.19       5.17
O       2.22       9.73       1.68
O       2.44      -1.18      19.89
O      13.38      14.31       2.62
O      13.00      14.21       0.44
