34

Mg       8.53       0.24       4.16
Mg      11.95       0.70       5.73
Mg      18.96      -0.24      10.13
Mg      15.53      -0.70       8.56
C      12.51      -1.36       8.11
C      20.66       2.37      10.04
C      21.38       0.92       8.43
C       9.61       1.38       6.95
C      11.08      -1.55       3.94
C      10.72       2.29       3.44
C      14.98       1.36       6.18
C       6.83      -2.37       4.25
C       6.11      -0.92       5.86
C      17.88      -1.38       7.34
C      16.41       1.55      10.35
C      16.77      -2.29      10.85
N      20.52       1.20       9.42
N       6.97      -1.20       4.87
O      12.03      -0.63       7.23
O      13.71      -1.47       8.41
O       9.23       0.58       6.08
O      10.78       1.83       7.01
O       9.85      -1.30       3.99
O      12.00      -0.86       4.43
O      11.62       2.06       4.27
O       9.70       1.61       3.23
O      15.46       0.63       7.06
O      13.78       1.47       5.88
O      18.26      -0.58       8.21
O      16.71      -1.83       7.28
O      17.64       1.30      10.30
O      15.49       0.86       9.85
O      15.86      -2.06      10.02
O      17.79      -1.61      11.06
