83

Zn       6.50       5.52       5.34
Zn       3.46       5.53       5.34
H       3.00       6.36       9.78
H       3.30       4.04       1.14
H       8.16       1.48       6.59
H       7.57       9.71       4.77
H       6.88       6.52       1.11
H       8.66       3.93       6.68
H       6.73       7.17       9.56
H       4.90       3.27       1.40
H       3.03       6.52       1.21
H       7.00       4.75       0.99
H       3.92       3.11       8.46
H       3.42       2.60      10.09
H       2.69       4.10       9.40
H       2.75       9.62       5.22
H       2.87       1.36       5.19
H       7.72       1.45       4.76
H       8.08       9.97       7.86
H       8.12       8.43       6.92
H       9.37       9.70       6.62
H       2.39       3.77       7.06
H       0.87       3.55       7.93
H       1.19       2.59       6.44
H       8.82       5.81       2.63
H       8.89       8.88       3.26
H       8.60       8.14       1.66
H       7.40       7.90       2.99
H       1.26       5.90       2.65
H       1.12       8.90       3.58
H       2.57       7.99       3.09
H       1.32       8.38       1.85
H       7.27       5.47       9.45
H       5.68       3.68       9.90
H       3.79       8.80       0.97
H       4.82       8.06       2.22
H       5.47       8.29       0.57
H       3.62       7.93       8.05
H       3.26       8.82       9.53
H       4.98       8.58       9.01
C       4.95       8.08       5.40
C       5.05       5.72       9.40
C       4.77       4.31      10.04
C       4.02       6.79       9.90
C       5.98      10.19       6.15
C       4.88       9.48       5.65
C       3.66      10.15       5.47
C       3.79       0.87       5.46
C       4.99       1.57       5.65
C       6.11       0.91       6.14
C       7.56       1.01       5.77
C       4.95       5.48       2.76
C       7.42      10.15       5.78
C       0.72       6.49       4.66
C       0.70       4.64       6.10
C       9.22       4.65       6.09
C       9.24       6.48       4.65
C       9.21       6.70       3.17
C       0.81       6.75       3.20
C       5.01       2.97       5.40
C       5.02       5.62       7.93
C       6.37       5.63       0.72
C       6.48       6.13       9.88
C       4.38       4.10       0.87
C       4.03       6.62       0.75
C       4.94       5.47       1.30
C       3.62       3.49       9.45
C       8.30       9.53       6.87
C       1.33       3.57       6.93
C       8.49       7.99       2.75
C       1.49       8.09       2.91
C       4.57       8.02       1.15
C       3.98       8.11       9.08
N       1.43       5.53       5.33
N       8.53       5.53       5.33
O       6.09       7.48       5.34
O       3.81       7.48       5.34
O       6.09       5.45       3.36
O       3.81       5.45       3.36
O       6.15       3.57       5.34
O       3.87       3.57       5.34
O       6.16       5.60       7.32
O       3.88       5.60       7.32
