14

Cu       9.54      -1.44      12.92
O       7.79      -0.69      13.54
C      10.68       1.12      12.69
O      10.01       0.27      12.01
O      10.98       1.03      13.93
O       8.79       0.08      15.44
Cu      10.60      -0.61      14.98
C       7.78      -0.14      14.69
O      12.34      -1.35      14.36
O      11.34      -2.12      12.46
O      10.12      -2.31      15.89
O       9.15      -3.07      13.97
C      12.35      -1.90      13.21
C       9.46      -3.16      15.21
