14

O      -2.94       6.27      12.00
O      -3.26       5.10      13.93
C      -0.01       4.99      13.23
Cu      -1.56       7.40      12.92
Cu      -1.90       6.11      14.99
O      -2.94       8.71      13.52
C      -3.45       5.33      12.69
O      -3.25       7.50      15.43
C      -3.45       8.51      14.67
O      -0.52       7.23      15.90
O      -0.20       8.41      13.97
C      -0.01       8.18      15.21
O      -0.52       4.79      14.38
O      -0.21       6.00      12.47
