372

C      -2.02      14.38      34.50
C      -2.41      13.58      36.80
C      -2.81      13.63      35.43
C      -2.15      14.29      33.09
C      -1.61      13.97      30.36
C      -1.92      12.82      31.11
C      -2.17      13.00      32.49
C      -2.06      11.59      30.44
C      -2.99      12.73      37.77
C       0.35      10.84       4.58
C      -0.89      11.34       5.07
C      -1.12      11.58       6.43
C      -0.06      11.29       7.30
C       0.53      10.84       3.17
C      -0.50      10.37       2.29
C      -0.50      10.82       0.93
C      -2.34      12.03       6.98
C      -1.58      10.55       0.05
C      -4.08       9.36      42.03
C      -3.04      10.34      41.68
C      -2.24      11.95      40.11
C      -1.12      12.24      40.92
C      -1.91      10.63      42.49
C      -4.69      11.24       7.05
C      -5.22      11.55       8.33
C      -4.66      12.54       9.27
C      -3.94      11.14      27.92
C      -4.37      10.11      28.90
C      -3.85       9.90      30.21
C      -0.95      15.20      34.99
C      -1.32      14.39      37.21
C      -2.08      15.44      32.25
C      -1.72      15.29      30.88
C      -1.46      16.39      30.03
C       1.19      10.76       6.89
C       1.37      10.46       5.51
C       0.60      11.58       0.46
C       1.67      11.48       2.62
C       2.20      10.62       7.88
C      -0.07      13.22      40.59
C       0.33      12.90      10.72
C       1.74      11.83       1.26
C      -0.59      15.23      36.34
C       0.39      16.08      36.90
C       2.91      13.00      21.35
C       1.43      15.52      16.19
C       0.43      16.29      15.53
C       3.14      11.71      21.86
C       2.91      12.31       0.62
C      -0.04      17.37      26.84
C       0.98      15.94      25.23
C       0.68      14.80      26.01
C       1.02      13.41      25.63
C      -0.33      16.23      27.62
C       2.51      11.64      10.22
C       1.71      12.46      11.05
C       4.95       9.40      23.18
C       3.81       9.37      24.11
C       4.28      10.01      42.92
C       2.85      14.71      19.55
C       3.03      13.36      19.99
C       2.60      14.03      22.25
C       2.43      15.39      21.88
C       2.62      15.75      20.51
C       2.81      14.92      18.14
C       3.78      14.30      17.28
C       3.45      14.11      15.91
C       2.26      14.69      15.41
C       1.71      15.60      17.57
C       2.01      16.29      22.89
C       4.27      13.36      15.03
C       9.68       4.59      42.15
C      10.09       3.85      44.46
C       9.91       3.53      43.08
C       9.74       4.44      40.73
C       8.81       5.09      39.87
C       9.17       5.35      38.52
C      10.51       3.94       0.60
C       8.39       6.16      37.66
C      -0.39      18.75      27.23
C       5.68      11.30      12.10
C       4.31      11.73      11.78
C       3.51      12.55      12.61
C       6.93       8.30      34.89
C      11.66       1.46      35.58
C      12.32       0.53      36.53
C       0.98      18.49      36.90
C       1.54      18.79      38.18
C       2.11      17.80      39.12
C       7.23       9.23      21.56
C       4.98      10.04      21.91
C       7.25       8.69      22.88
C       0.95      18.12      13.01
C       0.29      19.01      13.99
C      11.60       1.04      14.43
C      11.04       0.70      15.69
C      10.41       1.65      16.64
C      -0.13      18.68      15.31
C       5.37      10.14      43.91
C       5.27      11.64       0.40
C      14.61       5.29      12.25
C      13.56       4.44      12.70
C      13.22       4.32      14.06
C      13.95       5.10      14.96
C      15.02       5.96      14.59
C      15.41       6.00      13.21
C      14.74       5.46      10.84
C      14.66       4.34       9.95
C      14.27       4.56       8.60
C      14.16       5.89       8.13
C      14.51       7.01       8.93
C      14.77       6.77      10.29
C      14.66       8.26       8.29
C      15.60       6.76      15.60
C      12.26       3.42      14.57
C      13.98       3.49       7.71
C       9.49       5.92      42.63
C       9.56       6.24      44.00
C       9.88       6.22       0.03
C      10.39       4.80      38.03
C      11.20       3.94      38.80
C      10.87       3.79      40.17
C      12.22       3.22      38.15
C       9.26       7.51      44.54
C      12.08       9.20      27.23
C      13.33       8.69      27.67
C      13.60       8.40      29.02
C      12.54       8.60      29.92
C      11.27       9.11      29.56
C      11.06       9.49      28.20
C      11.89       9.31      25.83
C      12.91       9.85      24.99
C      12.95       9.47      23.61
C      11.87       8.72      23.09
C      10.72       8.41      23.85
C      10.76       8.69      25.23
C       9.58       7.92      23.17
C      10.27       9.17      30.57
C      14.86       7.99      29.52
C      14.03       9.80      22.76
C      16.60      10.04      19.93
C      15.57       9.04      19.56
C      14.82       7.45      17.95
C      13.70       7.13      18.75
C      12.66       6.14      18.38
C      14.44       8.73      20.35
C      12.85       1.27       4.81
C      12.53       2.67       4.49
C      11.54       4.19       2.94
C      11.85       5.29       3.77
C      11.53       6.70       3.45
C      12.84       3.78       5.32
C       8.30       7.92      34.51
C      10.06       8.10      32.90
C      10.90       7.27      33.68
C      12.27       6.88      33.31
C       9.14       7.09      35.28
C      12.74       0.82      37.86
C       8.37       9.36      20.63
C      16.46       8.67       5.73
C      16.93       9.70       6.68
C      16.47       9.91       8.02
C       7.60       9.33      44.36
C       7.56      10.97       0.79
C       8.69      11.04       1.74
C      17.25       8.60      29.36
C      17.85       8.27      30.60
C      17.34       7.26      31.55
H      -2.23      12.16      33.08
H      -4.33      13.22      34.12
H      -4.60      12.65      35.63
H      -1.84      11.58      29.44
H      -3.76      12.09      37.57
H      -1.62      11.64       4.41
H      -0.25      11.40       8.30
H      -2.04       9.01       2.18
H      -1.30       9.05       3.63
H      -2.34      12.29       7.97
H      -2.39      10.01       0.32
H      -5.05       9.87      42.10
H      -3.88       8.86      42.97
H      -4.14       8.60      41.24
H      -0.32      12.03      10.66
H      -3.77      12.14       9.75
H      -5.38      12.79      10.06
H      -4.41      13.47       8.74
H      -2.94      10.91      27.56
H      -3.94      12.13      28.39
H      -4.60      11.18      27.06
H      17.57       9.55      20.01
H      -1.09      14.46      38.20
H      -1.42      13.85      29.36
H      -2.50      17.46      32.25
H      -2.80      16.73      33.67
H       0.64      10.81      44.32
H       2.50       9.40       4.17
H       3.10       9.36       5.68
H       0.39      12.96      39.63
H      -0.50      14.22      40.53
H       0.57      13.17      24.67
H       0.66      12.70      26.37
H       0.33      13.43       9.77
H      -0.07      13.56      11.49
H       2.89       9.14      23.57
H      -0.37      15.73      34.33
H       0.62      15.95      37.88
H      -1.54      17.35      30.34
H       3.16      12.61      19.32
H       2.06      14.62      14.40
H       1.03      16.07      18.17
H       0.29      16.11      14.54
H       2.89      11.53      22.84
H       2.43      11.79       3.23
H       2.83      11.54      44.48
H       3.15      10.30       7.67
H       0.72      13.23      41.35
H      -0.93      18.80      28.18
H      -1.02      19.19      26.46
H       2.11      13.30      25.57
H       3.71      10.34      24.61
H       3.94       8.61      24.88
H       0.25      17.37      12.65
H       9.69       1.13      17.27
H       3.43       9.48      43.35
H       4.59       9.46      42.03
H       6.85       5.72      39.80
H       2.58      13.77      23.23
H       3.01      17.30      19.24
H       1.82      17.28      22.72
H       5.15      12.94      15.33
H       9.56       2.01      41.75
H       9.85       1.49      43.27
H       7.28       5.08      41.24
H      10.71       2.96       0.39
H       7.51       6.57      37.95
H       0.52      19.35      27.32
H       5.71      10.21      12.16
H       6.03      11.70      13.05
H       6.36      11.63      11.32
H      11.93       0.69       4.87
H       6.86       9.38      34.98
H       6.62       7.85      35.83
H       6.23       7.97      34.11
H      11.29       0.94      34.70
H       1.32      17.26      39.63
H       1.82      17.64      13.47
H       1.31      18.68      12.14
H      11.18       2.09      17.27
H       9.88       2.43      16.10
H       3.97      11.01      42.58
H      10.80       1.94      36.06
H       2.75      17.10      38.58
H       2.70      17.78      20.77
H       5.74      13.67      17.25
H       5.26      14.24      18.69
H      12.96       3.96      12.02
H      13.74       4.96      15.95
H      13.96       6.05       7.14
H      14.85       7.58      10.91
H      16.92       6.49      11.92
H      17.20       6.97      13.45
H      15.10       2.33       9.85
H      15.41       2.99      11.30
H      14.40       8.31       7.31
H      16.35       7.43      15.42
H      12.05       3.47      15.57
H      14.05       2.52       7.99
H       9.35       6.69      41.98
H       9.89       6.44       1.02
H      10.63       4.93      37.05
H      11.54       3.30      40.77
H      12.38       3.43      37.17
H       9.37       8.65       0.70
H      14.06       8.46      26.99
H      12.76       8.43      30.91
H      11.85       8.50      22.09
H      10.00       8.32      25.82
H       9.89      10.61      26.95
H       9.32      10.54      28.48
H      14.43      11.24      24.98
H      13.67      11.11      26.41
H       9.68       7.70      22.19
H       9.32       9.50      30.40
H      14.91       7.76      30.51
H      14.83      10.35      23.08
H      16.39      10.52      20.88
H      16.65      10.81      19.16
H      12.21       6.41      17.43
H      11.87       6.10      19.14
H      13.11       5.15      18.31
H      13.39       1.17       5.76
H      13.48       0.85       4.02
H      11.99       6.98       2.50
H      11.91       7.38       4.22
H      10.45       6.82       3.39
H      12.27       6.37      32.35
H      12.71       6.20      34.05
H      12.91       7.77      33.25
H      12.37       2.21      35.24
H       2.72      18.30      39.88
H       8.67       8.37      20.26
H       9.21       9.84      21.13
H       8.12       9.96      19.76
H      15.46       8.90       5.39
H      16.48       7.68       6.20
H      17.10       8.61       4.84
H       8.60      10.25       2.48
H       8.69      12.00       2.26
H       9.65      10.96       1.23
H      16.55       7.69      32.18
H      18.14       6.90      32.21
H      16.94       6.39      31.01
N      -3.97      13.05      35.01
N      -1.41       9.46       2.76
N      -3.15      11.02      40.51
N      -1.02      11.55      42.08
N      -2.34      12.57      38.93
N      -1.67      10.12      43.70
N      -5.39      10.36       6.30
N      -6.30      10.84       8.75
N      -3.47      11.47       6.51
N      -5.52       9.48      28.58
N      -4.49       8.97      30.97
N      -2.95      10.67      30.88
N      -2.42      16.66      32.78
N       2.46       9.75       5.07
N       2.01      11.26       9.04
N       0.04      15.01      27.18
N      -0.89      16.23      28.83
N       3.77      11.31      10.60
N       2.26      12.88      12.21
N       0.10      17.52      15.98
N       2.70      17.06      20.13
N       5.00      13.97      17.80
N       9.85       2.23      42.65
N       7.56       5.40      40.36
N       0.60      17.17      25.66
N       1.56      15.76      24.04
N       3.86      12.97      13.82
N       8.86       6.57      36.48
N      12.30      -0.77      36.16
N       0.52      17.32      36.39
N       6.11       9.89      21.18
N       6.10       8.80      23.60
N       4.19      11.01      21.39
N      12.01       0.02      13.65
N      -0.61      19.70      16.07
N       6.52       9.49      43.57
N       4.14      12.00       1.07
N       6.39      11.54       1.18
N      10.96       4.44       1.76
N       8.34       8.27      23.59
N      12.07       2.23      13.97
N      16.57       6.61      12.82
N      15.01       3.10      10.42
N       9.95      10.20      27.83
N      13.80      10.75      25.52
N      15.70       8.39      18.38
N      13.57       7.79      19.92
N      14.93       6.86      16.76
N      14.19       9.23      21.56
N      11.89       2.93       3.32
N      12.49       5.02       4.93
N      13.41       3.70       6.52
N       8.80       8.38      33.33
N      10.39       6.80      34.84
N      10.52       8.51      31.72
N      13.20      -0.22      38.59
N      12.53       1.97      38.56
N      15.59       9.15       8.72
N       8.37       8.31      43.92
N      15.98       8.44      28.93
