152

Zn      -3.49       9.98       0.50
Zn      -3.49      -3.68       9.29
Zn       3.53       2.63      19.10
Zn       3.53      16.29      10.31
H      -6.36       9.35       6.65
H       9.36      11.87       2.73
H      -5.06       9.41       4.52
H       8.04      11.80       4.84
H      -8.30      10.33       9.72
H      -8.31       8.27      11.06
H       2.37      18.50       3.15
H       0.65      15.97       7.07
H       3.67      18.43       5.28
H      -0.68      16.05       4.96
H       0.42      17.52       0.07
H      -8.30      10.65      18.34
H      -2.33      17.41       1.46
H      -0.61      12.80       2.14
H      -3.63      15.45       0.64
H       0.71      14.75       2.94
H      -0.38      19.80       3.63
H       8.34       0.33       2.31
H       6.40      10.44       8.34
H      -9.33      15.05       7.66
H       5.10      12.40       9.16
H      -8.00      13.10       6.86
H       8.34       8.04       6.18
H       8.35       5.97       7.49
H       6.40       3.26      12.95
H      -9.33       0.74      16.87
H       5.10       3.20      15.08
H      -8.00       0.82      14.76
H       8.34       2.29       9.88
H       8.35       4.34       8.54
H      -2.33      -5.88      16.45
H      -0.61      -3.36      12.53
H      -3.63      -5.82      14.32
H       0.71      -3.44      14.64
H      -0.38      -4.90      19.53
H       8.34       1.96       1.26
H       2.37      -4.79      18.14
H       0.65      -0.18      17.46
H       3.67      -2.83      18.96
H      -0.68      -2.13      16.66
H       0.42      -7.19      15.97
H      -8.30      12.28      17.29
H      -6.36       2.18      11.26
H       9.36      -2.43      11.94
H      -5.06       0.22      10.44
H       8.04      -0.48      12.74
H      -8.30       4.57      13.43
H      -8.31       6.64      12.11
C      -5.71      10.70       2.23
C      -6.74       9.89       5.79
C      -7.97      10.57       5.88
C       9.74      11.33       3.60
C      -6.49      10.65       3.49
C      -6.02       9.93       4.60
C       9.00      11.29       4.77
C      -8.49       9.37       9.24
C      -8.49       8.19       9.99
C       3.04      17.14       7.57
C       1.99      17.95       4.01
C       0.76      17.27       3.91
C       1.02      16.52       6.20
C       2.25      17.19       6.31
C       2.72      17.91       5.20
C       0.28      16.56       5.03
C       0.24      18.48       0.56
C      -8.48      10.73      19.41
C      -3.00      12.83       0.86
C      -1.96      16.40       1.60
C      -0.73      16.21       2.26
C      -0.98      13.81       2.00
C      -2.21      13.99       1.34
C      -2.68      15.30       1.14
C      -0.24      14.90       2.45
C      -0.20      19.76       2.55
C       8.52      -0.61       1.80
C       5.75      15.02       8.94
C       6.78      11.45       8.20
C       8.01      11.64       7.54
C      -9.70      14.03       7.80
C       6.53      13.85       8.46
C       6.05      12.54       8.66
C      -8.96      12.95       7.35
C       8.52       8.08       7.25
C       8.53       6.91       8.00
C       5.75       1.92      17.37
C       6.78       2.72      13.82
C       8.01       2.04      13.72
C      -9.70       1.28      16.00
C       6.53       1.96      16.11
C       6.05       2.68      15.00
C      -8.96       1.33      14.83
C       8.52       3.25      10.36
C       8.53       4.42       9.61
C      -3.00      -4.53      12.03
C      -1.95      -5.34      15.59
C      -0.73      -4.66      15.69
C      -0.98      -3.90      13.40
C      -2.21      -4.58      13.29
C      -2.68      -5.30      14.40
C      -0.24      -3.95      14.57
C      -0.20      -5.86      19.05
C       8.52       1.89       0.19
C       3.04      -0.21      18.74
C       1.99      -3.78      18.00
C       0.76      -3.59      17.34
C       1.02      -1.20      17.60
C       2.25      -1.38      18.26
C       2.72      -2.69      18.46
C       0.28      -2.28      17.16
C       0.24      -7.15      17.05
C      -8.48      13.22      17.80
C      -5.71      -2.41      10.66
C      -6.74       1.17      11.40
C      -7.97       0.98      12.06
C       9.74      -1.42      11.80
C      -6.49      -1.24      11.14
C      -6.02       0.07      10.94
C       9.00      -0.33      12.25
C      -8.49       4.53      12.35
C      -8.49       5.70      11.60
C      -8.71       9.32       7.86
C      -8.71       6.93       9.40
C       0.02      18.52       1.94
C       0.02      20.91       0.40
C      -8.71       3.29      11.74
C      -8.71       5.68      10.20
C       0.02      -5.91      17.66
C       0.02      -8.30      19.20
N      -8.71      10.52       7.09
N       0.02      17.32       2.71
N      -8.71       2.09      12.51
N       0.02      -4.71      16.89
O      -4.62      10.02       2.18
O      11.27      11.42       1.27
O       4.12      17.83       7.62
O       2.57      16.42       8.53
O      -4.08      13.07       0.22
O      -2.54      11.66       1.12
O       4.66      14.78       9.58
O     -11.24      16.19       8.68
O       4.66       2.60      17.42
O     -11.24       1.20      18.33
O      -4.08      -5.21      11.99
O      -2.54      -3.81      11.08
O       4.12      -0.46      19.38
O       2.57       0.96      18.48
O      -4.62      -2.17      10.02
O      11.27      -3.57      10.92
