11

Zn      15.57       9.69      19.94
C      18.35       8.75      20.23
N      15.93      11.42      18.99
C      14.54      10.59      22.33
C      17.21      11.69      18.61
C      14.96      12.29      18.61
C      13.11       8.62      18.34
O      17.16       8.55      19.72
O      14.98       9.46      21.84
N      14.35       8.40      18.84
C      14.91       7.19      18.59
