11

O      10.02      15.31      51.19
Cd       8.79      17.21      51.54
C       8.99      15.59      54.39
C       9.13      17.88      54.68
C       8.25      18.68      48.64
O       8.82      19.48      51.86
C       7.99      16.37      48.58
C      11.20      15.82      51.19
N       8.15      17.50      49.29
N       9.04      16.83      53.86
C       7.61      19.73      52.22
