24

C       6.74       0.40      14.73
Cd       5.47       0.40      17.31
Cd       9.22      -0.29      17.17
C       8.25       2.30      17.89
O       7.39       1.40      18.21
O       9.44       2.00      17.55
O       5.64       0.93      15.11
O       7.55      -0.20      15.51
N       5.32      -1.91      16.84
N       5.58      -0.76      19.33
C       5.23      -2.43      15.61
C       5.65      -0.17      20.53
C       5.58      -2.11      19.24
C       5.47      -2.72      17.92
O      10.69      -0.34      15.44
N       8.92      -2.70      16.95
N       9.11      -1.28      19.29
C       2.84       1.52      17.92
C       8.80      -3.36      15.79
O       4.03       2.00      17.84
C       9.13      -0.56      20.41
C       9.12      -2.64      19.35
C       9.03      -3.39      18.11
C      11.85      -0.43      15.95
