24

O       2.92       0.34      36.56
Cd       4.39       0.29      34.84
C       4.48       0.56      31.59
C       4.49       2.64      32.65
C       4.58       3.39      33.89
C       5.36      -2.30      34.11
C       1.75       0.43      36.05
C       8.38       2.43      36.39
Cd       8.13      -0.40      34.69
N       4.68       2.70      35.05
N       4.49       1.28      32.71
C       6.86      -0.40      37.27
C       7.95       0.17      31.47
C       8.03       2.11      32.76
O       9.58      -2.00      34.16
C       8.13       2.72      34.08
C      10.77      -1.52      34.08
N       8.29       1.91      35.16
N       8.03       0.76      32.67
O       6.22      -1.40      33.79
O       4.17      -2.00      34.45
O       7.97      -0.93      36.89
O       6.06       0.20      36.49
C       4.81       3.36      36.21
