13

C       8.33       0.63       9.28
Zn       9.05      -2.01      10.30
O       9.62      -0.88      11.96
N      10.91      -2.87       9.81
C      10.80      -4.35       9.85
C      11.30      -2.46       8.42
C      12.00      -2.45      10.75
O       8.03      -2.96       8.75
C       6.77      -2.81       8.58
O       9.20      -0.30       9.20
C       7.29      -3.71      12.03
C       8.83      -0.24      12.74
O       8.45      -3.54      11.52
