12

Zn       4.23       6.42      14.78
C       5.04       8.76      14.50
C       3.06       6.06      17.52
C       1.65       5.15      13.94
N       4.34       5.83      16.81
C       4.70       4.37      16.96
C       5.41       6.64      17.48
C       6.03       4.62      13.10
O       2.28       6.09      14.52
O       5.43       4.89      14.20
O       5.88       7.81      14.40
O       3.83       8.51      14.88
