372

Cu       1.18      21.42       6.18
Cu       3.26      21.53       7.85
Cu       5.30      14.00      20.84
Cu       3.22      13.89      22.51
Cu       5.66       2.19      23.14
Cu       3.58       2.08      21.47
Cu       1.54       9.61       8.48
Cu       3.62       9.73       6.81
H       6.02      18.84       8.42
H       4.96      17.22       9.94
H       1.07      16.97      12.21
H       2.12      18.54      10.66
H       6.92      14.72       9.94
H       5.98      12.85       8.65
H       2.50      12.86      11.14
H       3.43      14.69      12.48
H       6.06      18.50       6.26
H      -0.46      16.63       5.02
H       3.71      16.55       2.35
H       2.67      18.35       3.64
H       5.28      14.09       4.97
H       6.35      12.40       6.41
H       2.42      12.76       4.14
H       1.36      14.39       2.65
H       5.82      22.66       4.67
H       0.70      19.39       3.66
H       6.29      19.68       1.70
H       2.91      21.08       3.16
H       1.47      22.40       1.42
H       0.00      21.56      11.16
H       6.31      20.69      12.11
H       6.34      22.49      12.10
H       0.46      16.58      23.08
H       1.53      18.20      24.60
H       5.42      18.45      26.87
H       4.37      16.88      25.32
H      -0.43      20.70      24.60
H       0.51      22.57      23.31
H       3.99      22.56      25.80
H       3.05      20.73      27.14
H       0.42      16.92      20.92
H       6.94      18.79      19.68
H       2.77      18.87      17.01
H       3.81      17.07      18.30
H       1.21      21.33      19.63
H       0.13      23.02      21.07
H       4.07      22.66      18.80
H       5.13      21.03      17.31
H       0.66      12.76      19.33
H       5.79      16.03      18.32
H       0.19      15.74      16.36
H       3.57      14.34      17.82
H       5.01      13.02      16.08
H       6.49      13.86      25.82
H       0.17      14.73      26.77
H       0.14      12.93      26.76
H       0.82       4.77      20.90
H       1.88       6.39      19.38
H       5.77       6.64      17.11
H       4.72       5.08      18.66
H      -0.08       8.89      19.38
H       0.86      10.77      20.67
H       4.35      10.75      18.18
H       3.41       8.92      16.84
H       0.78       5.11      23.06
H       7.30       6.98      24.30
H       3.13       7.06      26.97
H       4.17       5.27      25.68
H       1.56       9.52      24.35
H       0.49      11.21      22.91
H       4.42      10.85      25.18
H       5.48       9.22      26.67
H       1.02       0.95      24.65
H       6.14       4.23      25.66
H       0.55       3.93      27.62
H       3.93       2.53      26.16
H       5.37       1.21      27.90
H       6.84       2.05      18.16
H       0.53       2.92      17.21
H       0.50       1.13      17.22
H       6.38       7.04       6.24
H       5.31       5.41       4.72
H       1.42       5.17       2.45
H       2.47       6.73       4.00
H       7.27       2.92       4.72
H       6.33       1.04       6.01
H       2.85       1.06       3.52
H       3.79       2.89       2.18
H       6.42       6.70       8.40
H      -0.10       4.82       9.64
H       4.07       4.75      12.31
H       3.03       6.54      11.02
H       5.63       2.29       9.69
H       6.71       0.59       8.25
H       2.77       0.95      10.52
H       1.71       2.58      12.01
H       6.18      10.86       9.99
H       1.05       7.58      11.00
H       6.65       7.87      12.96
H       3.27       9.28      11.50
H       1.83      10.59      13.24
H       0.36       9.76       3.50
H       6.67       8.88       2.55
H       6.70      10.68       2.56
C       1.06      19.72       8.48
C       0.38      18.77       9.42
C       6.59      18.41       9.24
C       5.99      17.51      10.12
C       6.69      16.96      11.21
C       0.47      17.36      11.39
C       1.08      18.25      10.51
C       5.95      15.97      12.13
C       6.93      15.25      13.12
C       4.95      16.79      13.00
C       5.26      14.86      11.32
C       5.95      14.32      10.22
C       5.42      13.26       9.48
C       4.17      12.73       9.81
C       3.47      13.27      10.89
C       4.01      14.32      11.64
C       3.60      11.56       9.04
C       3.61      19.65       5.80
C       4.28      18.54       5.04
C       5.54      18.05       5.42
C       6.13      17.01       4.70
C       5.49      16.44       3.59
C       4.24      16.95       3.21
C       3.65      17.97       3.94
C       6.24      15.36       2.78
C       5.28      14.48       1.92
C      -0.37      16.12       1.80
C       7.00      14.38       3.70
C       6.31      13.81       4.78
C       6.91      12.86       5.60
C       0.69      12.48       5.38
C       1.39      13.06       4.31
C       0.78      13.99       3.47
C       1.36      11.46       6.25
C       6.26      21.83       4.14
C      -0.08      20.12       3.56
C       6.52      20.26       2.58
C       4.68      21.91       2.20
C       3.33      21.71       2.38
C       2.55      22.43       1.44
C       3.30      23.19       0.54
C       6.50      21.58      11.49
C       5.61      21.60      10.35
C       5.42      15.70      23.14
C       6.10      16.65      24.08
C      -0.11      17.01      23.90
C       0.50      17.91      24.78
C      -0.21      18.46      25.87
C       6.01      18.06      26.05
C       5.40      17.17      25.17
C       0.53      19.45      26.79
C      -0.44      20.17      27.78
C       1.53      18.63      27.66
C       1.23      20.56      25.98
C       0.53      21.10      24.88
C       1.07      22.16      24.14
C       2.32      22.69      24.47
C       3.02      22.15      25.55
C       2.48      21.10      26.30
C       3.59       0.24      23.70
C       2.88      15.77      20.46
C       2.20      16.88      19.70
C       0.95      17.37      20.08
C       0.36      18.41      19.36
C       0.99      18.98      18.25
C       2.24      18.47      17.87
C       2.84      17.45      18.60
C       0.24      20.06      17.44
C       1.20      20.94      16.58
C       6.85      19.30      16.46
C      -0.52      21.04      18.36
C       0.18      21.61      19.44
C      -0.43      22.56      20.26
C       5.79      22.94      20.04
C       5.10      22.36      18.97
C       5.71      21.43      18.13
C       5.83       0.35      20.91
C       0.23      13.59      18.80
C       6.57      15.30      18.22
C      -0.03      15.16      17.24
C       1.81      13.51      16.86
C       3.16      13.71      17.04
C       3.93      12.99      16.10
C       3.19      12.23      15.20
C      -0.02      13.84      26.15
C       0.87      13.82      25.01
C       5.78       3.89      20.84
C       6.46       4.84      19.90
C       0.25       5.20      20.08
C       0.85       6.11      19.20
C       0.15       6.65      18.11
C       6.37       6.26      17.93
C       5.76       5.37      18.81
C       0.89       7.65      17.19
C      -0.09       8.36      16.20
C       1.89       6.82      16.32
C       1.58       8.76      18.00
C       0.89       9.30      19.10
C       1.42      10.35      19.84
C       2.67      10.89      19.51
C       3.37      10.34      18.43
C       2.83       9.29      17.68
C       3.24      12.05      20.28
C       3.23       3.96      23.52
C       2.56       5.07      24.28
C       1.30       5.56      23.90
C       0.71       6.61      24.62
C       1.35       7.17      25.73
C       2.60       6.67      26.11
C       3.19       5.64      25.38
C       0.60       8.25      26.54
C       1.56       9.13      27.40
C       7.21       7.49      27.52
C      -0.16       9.23      25.62
C       0.53       9.81      24.54
C      -0.07      10.75      23.72
C       6.15      11.13      23.94
C       5.45      10.56      25.01
C       6.06       9.63      25.85
C       5.48      12.16      23.07
C       0.59       1.78      25.18
C       6.92       3.49      25.76
C       0.32       3.36      26.73
C       2.16       1.71      27.12
C       3.52       1.91      26.94
C       4.29       1.18      27.88
C       3.54       0.43      28.78
C       0.34       2.03      17.83
C       1.23       2.02      18.97
C       1.42       7.91       6.18
C       0.74       6.96       5.24
C       6.95       6.60       5.42
C       6.34       5.70       4.54
C       7.05       5.16       3.45
C       0.83       5.55       3.27
C       1.44       6.44       4.15
C       6.31       4.16       2.53
C       7.28       3.45       1.54
C       5.31       4.98       1.66
C       5.61       3.05       3.34
C       6.31       2.51       4.44
C       5.77       1.46       5.18
C       4.52       0.92       4.85
C       3.82       1.47       3.77
C       4.36       2.51       3.02
C       3.25      23.37       5.62
C       3.96       7.84       8.86
C       4.64       6.74       9.62
C       5.89       6.24       9.24
C       6.48       5.20       9.96
C       5.85       4.63      11.07
C       4.60       5.14      11.45
C       4.00       6.17      10.72
C       6.60       3.55      11.88
C       5.64       2.68      12.74
C      -0.01       4.32      12.86
C       7.36       2.57      10.96
C       6.66       2.00       9.88
C       7.27       1.06       9.06
C       1.05       0.68       9.28
C       1.74       1.25      10.35
C       1.13       2.18      11.19
C       1.01      23.26       8.41
C       6.61      10.02      10.52
C       0.27       8.32      11.10
C       6.87       8.45      12.08
C       5.03      10.10      12.46
C       3.68       9.90      12.28
C       2.91      10.63      13.22
C       3.65      11.38      14.12
C       6.86       9.78       3.17
C       5.97       9.79       4.31
S       5.00      22.99       0.87
S       1.48      12.43      15.53
S       1.84       0.63      28.45
S       5.36      11.18      13.79
N      -0.25      21.11       4.52
N       5.74      21.35       2.95
N       4.89      21.61       9.44
N       6.74      14.31      19.18
N       0.74      14.07      17.61
N       1.60      13.81      24.10
N       7.09       2.50      24.80
N       1.10       2.26      26.37
N       1.95       2.00      19.88
N       0.10       9.30      10.14
N       6.10       9.55      11.71
N       5.24       9.81       5.22
O       0.47      19.98       7.38
O       2.19      20.17       8.87
O       4.33      11.09       8.10
O       2.45      11.14       9.40
O       2.50      20.08       5.33
O       4.18      20.07       6.86
O       0.69      10.98       7.21
O       2.56      11.16       5.92
O       6.02      15.44      22.04
O       4.29      15.25      23.53
O       2.87       0.71      22.76
O       4.74       0.66      24.06
O       3.98      15.34      19.99
O       2.30      15.35      21.52
O       6.51       0.83      21.87
O       4.63       0.65      20.58
O       6.37       3.63      21.94
O       4.65       3.44      20.45
O       2.51      12.52      21.22
O       4.39      12.47      19.92
O       4.34       3.53      23.99
O       2.66       3.54      22.46
O       6.15      12.64      22.11
O       4.28      12.46      23.40
O       0.82       8.17       7.28
O       2.55       8.37       5.79
O       3.97      22.90       6.56
O       2.10      22.95       5.26
O       2.86       8.27       9.33
O       4.54       8.27       7.80
O       0.33      22.78       7.45
O       2.21      22.96       8.74
F       0.38      14.63      12.45
F      -0.04      16.13      14.00
F       6.31      14.30      13.86
F       5.53      17.89      13.53
F       4.43      16.09      14.05
F       3.89      17.21      12.25
F       5.93      13.41       1.40
F       4.73      15.13       0.85
F       4.23      14.03       2.67
F       6.50      17.08       1.12
F       0.21      15.32       0.86
F       0.65      16.73       2.47
F       6.10      20.79      27.11
F       6.53      19.29      28.66
F       0.18      21.12      28.52
F       0.95      17.53      28.19
F       2.05      19.33      28.71
F       2.59      18.21      26.91
F       0.55      22.01      16.06
F       1.75      20.29      15.51
F       2.25      21.39      17.33
F      -0.01      18.34      15.78
F       6.27      20.10      15.52
F       5.84      18.69      17.13
F       6.46       8.98      16.86
F       6.88       7.48      15.32
F       0.53       9.31      15.46
F       1.31       5.72      15.79
F       2.41       7.52      15.27
F       2.95       6.40      17.07
F       0.91      10.20      27.92
F       2.11       8.48      28.46
F       2.61       9.59      26.65
F       0.34       6.53      28.19
F       6.63       8.30      28.46
F       6.19       6.88      26.85
F       0.74       2.83       2.21
F       0.31       4.32       0.66
F       6.67       2.49       0.80
F       5.89       6.08       1.13
F       4.79       4.28       0.61
F       4.25       5.40       2.41
F       6.29       1.60      13.26
F       5.09       3.32      13.81
F       4.59       2.22      11.99
F       6.85       5.27      13.53
F       0.57       3.51      13.80
F       1.00       4.93      12.19
