210

Ba      10.96       3.48      12.35
Ba       1.94      15.21       8.51
Cd       6.65       8.38       0.81
Cd      10.72      18.55       9.90
Cd       6.25      10.31      20.05
Cd       2.18       0.14      10.96
Cd       4.68      17.83       0.20
Cd       8.22       0.86      20.66
H       2.32       4.75       8.43
H       2.87       6.00       6.35
H      10.01       3.68       4.19
H       9.49       2.41       6.26
H       3.71       6.12       4.06
H       1.76       8.37       0.98
H       9.46       5.86       3.56
H       6.05       7.64      16.53
H       5.88       5.93      14.71
H       8.35       3.26      17.03
H       8.58       5.00      18.77
H       4.88       3.87      14.27
H       6.55       0.65      11.98
H       8.98       2.69      14.88
H      10.58      13.94      12.43
H      10.03      12.69      14.51
H       2.89      15.01      16.66
H       3.41      16.28      14.60
H       9.19      12.57      16.80
H      11.14      10.32      19.88
H       3.44      12.83      17.30
H       6.85      11.05       4.32
H       7.02      12.76       6.15
H       4.55      15.43       3.83
H       4.32      13.70       2.09
H       8.02      14.82       6.59
H       6.35      18.04       8.88
H       3.92      16.00       5.98
H      10.65      10.28       1.45
H       2.12      11.29       1.37
H       1.18      11.18       2.89
H       8.61      11.21       1.20
H       7.18      13.17       0.61
H      10.69      15.68       1.02
H       1.96      13.62       1.48
H       8.44      15.34       3.35
H       7.48      17.31       4.89
H      10.18      14.31      19.10
H       8.77      15.17      17.03
H       3.50       1.94       5.13
H       3.82       2.50       7.49
H       5.35       1.65       9.52
H       5.66       3.36       9.12
H       7.03       2.21       9.23
H       7.86       1.46       7.35
H       7.69       0.84       4.95
H       2.25       8.41      19.41
H      10.78       7.40      19.49
H      11.72       7.51      17.97
H       4.29       7.48      19.65
H       5.71       5.52      20.25
H       2.20       3.01      19.83
H      10.94       5.07      19.38
H       4.46       3.35      17.51
H       5.42       1.38      15.97
H       2.72       4.39       1.76
H       4.13       3.52       3.83
H       9.40      16.75      15.73
H       9.07      16.19      13.36
H       7.55      17.04      11.34
H       7.24      15.33      11.73
H       5.87      16.48      11.63
H       5.04      17.23      13.51
H       5.21      17.85      15.91
C      10.39       2.94       8.78
C      10.86       3.53       7.50
C       1.82       4.51       7.49
C       2.12       5.21       6.33
C       1.41       4.97       5.14
C      10.52       3.92       5.12
C      10.23       3.20       6.28
C       1.54       5.87       3.97
C       2.78       6.39       3.56
C       2.86       7.26       2.46
C       1.69       7.67       1.82
C      10.49       7.18       2.23
C      10.43       6.25       3.27
C       9.22       7.65       1.59
C       4.20       7.70       1.96
C       7.43       7.48      18.84
C       7.34       6.43      17.75
C       6.56       6.68      16.61
C       6.45       5.72      15.61
C       7.11       4.48      15.73
C       7.88       4.23      16.88
C       8.00       5.20      17.87
C       6.96       3.45      14.68
C       5.74       3.27      14.01
C       5.59       2.25      13.05
C       6.67       1.43      12.73
C       7.90       1.61      13.36
C       8.03       2.60      14.34
C       9.08       0.78      12.93
C       4.25       1.99      12.43
C       2.51      15.76      12.08
C       2.04      15.16      13.36
C      11.08      14.18      13.37
C      10.78      13.48      14.53
C      11.49      13.72      15.72
C       2.38      14.77      15.73
C       2.67      15.49      14.58
C      11.35      12.82      16.89
C      10.12      12.30      17.29
C      10.04      11.43      18.39
C      11.21      11.02      19.04
C       2.40      11.51      18.63
C       2.47      12.44      17.59
C       3.68      11.04      19.27
C       8.70      10.99      18.90
C       5.47      11.21       2.02
C       5.56      12.26       3.11
C       6.34      12.01       4.25
C       6.44      12.97       5.25
C       5.79      14.21       5.13
C       5.02      14.46       3.98
C       4.90      13.49       2.99
C       5.94      15.24       6.18
C       7.16      15.42       6.85
C       7.31      16.44       7.80
C       6.23      17.26       8.13
C       5.00      17.08       7.50
C       4.87      16.09       6.52
C       3.82      17.92       7.93
C       8.65      16.70       8.43
C       1.11      11.19       1.79
C       9.02      12.22       1.13
C       8.24      13.32       0.81
C       8.81      14.61       0.79
C      10.19      14.72       1.05
C       0.89      13.59       1.32
C       7.81      16.66       1.67
C       8.04      16.29       3.02
C       7.54      17.31       3.81
C       7.03      18.32       2.94
C       7.99      15.82       0.54
C       9.39      16.14      20.12
C       9.59      15.21      19.05
C       8.88      15.68      17.98
C       8.28      16.93      18.35
C       5.44       0.98       3.37
C       5.57       1.35       4.76
C       4.49       1.86       5.55
C       4.65       2.17       6.87
C       5.98       2.33       8.93
C       6.93       1.54       6.79
C       6.81       1.20       5.47
C      11.79       7.50      19.06
C       3.88       6.47      19.73
C       4.66       5.37      20.04
C       4.09       4.08      20.07
C       2.71       3.97      19.81
C      12.01       5.10      19.54
C       5.09       2.03      19.19
C       4.86       2.40      17.84
C       5.36       1.39      17.05
C       5.87       0.37      17.91
C       4.91       2.87      20.31
C       3.51       2.55       0.73
C       3.31       3.48       1.80
C       4.01       3.01       2.88
C       4.62       1.76       2.51
C       7.46      17.72      17.49
C       7.32      17.34      16.10
C       8.41      16.83      15.31
C       8.25      16.52      13.98
C       6.92      16.36      11.92
C       5.97      17.15      14.06
C       6.09      17.49      15.39
N       8.57      17.20      19.68
N       7.19      17.92       1.63
N      10.35      12.36       1.38
N       5.86       2.03       7.50
N       4.32       1.49       1.17
N       5.71       0.78      19.22
N       2.55       6.33      19.47
N       7.04      16.66      13.35
Cl       3.27      16.37       1.45
Cl       9.63       2.32      19.41
O       9.48       2.05       8.75
O      10.92       3.38       9.87
O       8.24       6.84       1.57
O       9.17       8.83       1.12
O       4.23       8.23       0.79
O       5.23       7.49       2.65
O       8.39       7.36      19.66
O       6.51       8.36      18.81
O      10.25       1.23      13.24
O       9.78      18.28      12.25
O       4.14       0.89      11.78
O       3.33       2.85      12.59
O       3.42      16.64      12.11
O       1.98      15.31      10.99
O       4.66      11.86      19.29
O       3.73       9.86      19.74
O       8.67      10.46      20.07
O       7.67      11.20      18.20
O       4.50      11.33       1.19
O       6.39      10.33       2.05
O       2.64      17.46       7.62
O       3.12       0.41       8.61
O       8.76      17.80       9.08
O       9.57      15.84       8.27
