534

C       0.06       0.41      49.85
C       8.53      13.74      50.31
C       8.56      13.75       0.94
C       0.15       0.43       1.39
C       0.23       0.71       2.77
C       8.69      14.30       3.73
C       8.60      12.96       3.23
C       8.55      12.68       1.86
C       8.50      12.66      49.42
C       8.48      12.92      48.03
C       8.49      14.25      47.53
C      16.92       0.66      48.46
C      15.89       2.30       0.25
C      16.35       3.62       0.19
C       0.82       3.61       0.14
C       1.27       2.29       0.17
C       1.73       4.68       0.08
C       3.10       4.41       0.03
C       3.60       3.08       0.05
C       2.66       2.01       0.13
C      14.50       2.03       0.29
C      13.56       3.10       0.28
C      14.06       4.42       0.20
C      15.44       4.69       0.16
C       0.12       1.36       0.23
C       8.31      14.56      32.93
C       0.99       0.56      33.40
C       0.95       0.58      34.79
C       8.25      14.62      35.23
C       7.98      14.54      36.61
C       0.38       0.41      37.57
C       1.58       1.01      37.09
C       1.86       1.11      35.72
C       1.94       1.08      32.51
C       1.73       0.94      31.12
C       0.58       0.28      30.61
C       8.09      14.40      31.54
C       7.22      12.66      34.09
C       5.85      12.40      34.03
C       5.16      13.60      33.99
C       6.07      14.66      34.02
C       3.77      13.85      33.92
C      11.78       0.53      33.87
C      12.68       1.62      33.89
C      14.08       1.34      33.97
C       8.15      11.59      34.13
C       7.69      10.24      34.11
C       6.29      10.02      34.04
C       5.37      11.08      34.00
C       7.46      14.13      34.07
C       8.85      14.61      16.01
C      16.17       0.62      16.47
C      16.16       0.59      17.86
C       8.83      14.53      18.31
C       9.03      14.34      19.69
C      16.57       0.20      20.65
C      15.46       0.94      20.16
C      15.25       1.13      18.78
C      15.25       1.19      15.58
C      15.48       1.07      14.19
C      16.63       0.40      13.69
C       9.09      14.51      14.62
C      11.04      14.62      17.17
C      11.95      13.56      17.11
C      11.25      12.36      17.07
C       9.88      12.63      17.10
C      11.73      11.04      17.00
C      10.80       9.98      16.96
C       9.40      10.22      16.97
C       8.95      11.56      17.06
C       3.04       1.30      17.21
C       4.43       1.59      17.20
C       5.33       0.49      17.12
C      13.33      13.81      17.08
C       9.65      14.09      17.15
C      16.83       0.29      12.28
C       1.11       0.69      11.66
C       1.28       0.69      10.25
C       0.20       0.26       9.43
C      15.92      29.13      10.04
C      15.78      29.16      11.44
C       0.26       0.22       8.00
C       9.45      13.83       7.40
C       9.48      13.67       6.00
C       0.30      29.20       5.14
C      16.52       0.96       5.76
C      16.49       1.14       7.16
C       2.55       1.18       9.66
C      15.74       2.29       7.74
C      16.83      29.10      46.11
C      15.97       0.75      45.51
C      15.86       0.88      44.10
C      16.64       0.04      43.25
C       9.34      13.93      43.88
C       9.39      13.78      45.28
C       8.37      14.82      41.84
C       0.31       1.28      41.24
C       0.47       1.39      39.85
C       8.64      15.01      38.99
C       8.07      13.87      39.60
C       7.92      13.75      41.00
C      14.88       1.88      43.58
C       7.30      12.53      41.58
C       8.84      14.81      29.20
C       8.58      13.56      28.58
C       8.50      13.42      27.17
C       8.66      14.57      26.35
C       0.43       1.18      26.96
C       0.53       1.29      28.36
C       8.60      14.53      24.92
C       7.32      14.43      24.32
C       7.18      14.48      22.92
C       8.29      14.68      22.07
C       1.11       0.10      22.68
C       1.28       0.03      24.08
C       8.28      12.07      26.58
C       2.66       0.10      24.66
C       5.01       2.85      50.75
C       5.82       3.55      49.82
C       7.23       3.46      49.83
C       7.87       2.63       0.03
C       7.07       1.90       0.94
C       5.66       2.00       0.91
C       9.29       2.59       0.18
C       9.89       3.58       0.99
C      11.29       3.71       1.06
C      12.14       2.87       0.30
C      11.53       1.85      50.29
C      10.12       1.70      50.21
C       8.02       4.27      48.86
C       9.54       0.62      49.37
C      12.18       2.96      33.83
C      11.17       3.31      32.90
C      10.54       4.58      32.91
C      10.94       5.55      33.87
C      11.97       5.22      34.78
C      12.59       3.95      34.76
C      10.26       6.79      34.01
C       9.11       6.82      34.83
C       8.30       7.97      34.90
C       8.60       9.13      34.14
C       9.79       9.11      33.37
C      10.62       7.96      33.29
C       9.44       4.86      31.94
C      11.85       8.00      32.44
C       8.49       9.11      16.91
C       8.70       8.06      15.98
C       7.92       6.88      15.99
C       6.88       6.75      16.95
C       6.64       7.81      17.86
C       7.43       8.97      17.84
C       6.14       5.53      17.09
C       6.69       4.52      17.91
C       6.10       3.25      17.98
C       4.94       2.93      17.22
C       4.37       3.97      16.45
C       4.94       5.26      16.37
C       8.23       5.80      15.02
C       4.30       6.31      15.52
C       8.54      15.06      49.85
C       0.04      28.40      50.32
C       0.09      28.41       0.94
C       8.61      15.07       1.39
C       8.68      15.35       2.77
C       0.24      28.96       3.73
C       0.15      27.63       3.23
C       0.09      27.34       1.86
C      16.88      27.31      49.43
C      16.83      27.57      48.04
C      16.86      28.89      47.53
C       8.50      15.32      48.46
C       7.43      16.95       0.25
C       7.89      18.27       0.19
C       9.28      18.26       0.15
C       9.73      16.94       0.18
C      10.19      19.33       0.08
C      11.57      19.06       0.03
C      12.06      17.73       0.05
C      11.12      16.66       0.14
C       6.05      16.68       0.29
C       5.10      17.74       0.27
C       5.61      19.07       0.19
C       6.99      19.34       0.16
C       8.58      16.00       0.23
C      16.77      29.22      32.92
C       9.45      15.21      33.39
C       9.42      15.24      34.78
C      16.70      29.27      35.22
C      16.40      29.18      36.60
C       8.89      15.08      37.57
C      10.08      15.67      37.07
C      10.35      15.76      35.70
C      10.40      15.73      32.49
C      10.18      15.59      31.11
C       9.03      14.93      30.61
C      16.56      29.06      31.53
C      15.67      27.31      34.08
C      14.30      27.05      34.02
C      13.61      28.26      33.98
C      14.53       0.00      34.00
C      12.23      28.50      33.92
C       3.32      15.18      33.88
C       4.23      16.28      33.89
C       5.62      16.00      33.98
C      16.60      26.25      34.12
C      16.15      24.90      34.11
C      14.75      24.67      34.03
C      13.83      25.73      33.99
C      15.92      28.78      34.06
C       0.39      29.26      16.01
C       7.71      15.28      16.47
C       7.70      15.24      17.86
C       0.36      29.19      18.31
C       0.57      28.99      19.69
C       8.11      14.86      20.65
C       7.00      15.60      20.15
C       6.79      15.78      18.78
C       6.79      15.84      15.57
C       7.02      15.72      14.19
C       8.17      15.05      13.69
C       0.63      29.16      14.62
C       2.58      29.27      17.17
C       3.49      28.22      17.11
C       2.79      27.01      17.07
C       1.42      27.28      17.10
C       3.27      25.69      17.00
C       2.34      24.64      16.96
C       0.94      24.87      16.97
C       0.49      26.22      17.06
C      11.50      15.95      17.21
C      12.89      16.24      17.20
C      13.79      15.14      17.12
C       4.87      28.46      17.08
C       1.19      28.75      17.15
C       8.37      14.95      12.28
C       9.58      15.35      11.66
C       9.74      15.35      10.25
C       8.66      14.91       9.43
C       7.46      14.48      10.04
C       7.32      14.50      11.44
C       8.73      14.87       8.00
C       0.99      28.48       7.40
C       1.02      28.33       6.00
C       8.75      14.54       5.15
C       8.05      15.61       5.76
C       8.03      15.79       7.16
C      11.01      15.83       9.66
C       7.28      16.95       7.74
C       8.49      14.47      46.12
C       7.53      15.32      45.50
C       7.45      15.46      44.09
C       8.37      14.74      43.27
C       0.62      28.44      43.86
C       0.70      28.31      45.25
C      16.66       0.13      41.82
C       8.91      15.97      41.24
C       9.03      16.07      39.84
C       0.11       0.33      38.98
C      16.43      28.49      39.57
C      16.24      28.37      40.97
C       6.39      16.32      43.50
C      15.58      27.15      41.51
C       0.40       0.16      29.20
C       0.13      28.22      28.59
C       0.04      28.08      27.17
C       0.21      29.23      26.35
C       8.88      15.83      26.96
C       8.98      15.94      28.36
C       0.14      29.19      24.92
C      15.79      29.08      24.32
C      15.64      29.14      22.92
C      16.75       0.02      22.07
C       9.57      14.75      22.68
C       9.74      14.68      24.08
C      16.74      26.73      26.59
C      11.11      14.75      24.66
C      13.48      17.50      50.76
C      14.28      18.20      49.83
C      15.70      18.11      49.83
C      16.33      17.28       0.03
C      15.53      16.55       0.94
C      14.13      16.65       0.92
C       0.83      17.25       0.17
C       1.43      18.23       0.99
C       2.83      18.36       1.05
C       3.68      17.51       0.30
C       3.07      16.50      50.29
C       1.66      16.35      50.21
C      16.48      18.92      48.86
C       1.08      15.27      49.36
C       3.72      17.62      33.83
C       2.71      17.97      32.90
C       2.08      19.23      32.91
C       2.48      20.20      33.88
C       3.51      19.87      34.78
C       4.13      18.61      34.76
C       1.80      21.45      34.01
C       0.65      21.48      34.83
C      16.76      22.62      34.89
C       0.14      23.78      34.14
C       1.33      23.76      33.37
C       2.16      22.62      33.29
C       0.99      19.51      31.94
C       3.39      22.65      32.44
C       0.03      23.76      16.91
C       0.24      22.72      15.98
C      16.38      21.54      15.99
C      15.34      21.40      16.95
C      15.10      22.46      17.86
C      15.89      23.63      17.84
C      14.60      20.19      17.09
C      15.15      19.17      17.91
C      14.56      17.90      17.98
C      13.40      17.58      17.22
C      12.83      18.62      16.45
C      13.40      19.92      16.37
C      16.69      20.45      15.02
C      12.76      20.96      15.52
H      13.42       5.22       0.14
H      15.78       5.66       0.09
H       1.39       5.65       0.07
H       3.75       5.20       0.00
H       2.97       1.04       0.13
H      14.19       1.06       0.35
H       0.30       1.68       3.07
H       8.56      12.17       3.88
H       8.49      11.72       1.53
H       0.03       1.63      48.13
H       8.49      11.69      49.76
H       8.45      12.12      47.39
H       5.92       9.06      33.98
H       4.37      10.88      33.93
H       3.10      13.08      33.91
H      10.77       0.69      33.85
H      14.76       2.10      33.97
H       9.14      11.81      34.19
H       7.10      14.11      36.91
H       2.27       1.37      37.75
H       2.73       1.55      35.41
H       7.24      13.93      31.21
H       2.78       1.56      32.85
H       2.44       1.31      30.48
H       6.34       0.64      17.06
H      14.00      13.04      17.02
H      12.73      10.84      16.99
H      11.17       9.03      16.93
H       7.95      11.78      17.06
H       2.35       2.06      17.27
H       9.84      13.79      19.99
H      14.80       1.38      20.80
H      14.44       1.66      18.45
H       9.92      14.00      14.29
H      14.42       1.68      15.91
H      14.81       1.49      13.55
H      14.89      28.84      11.84
H       9.96      13.14       7.97
H      10.02      12.90       5.62
H      15.97       1.59       5.17
H      10.34      15.70      12.25
H       3.26       1.52      10.42
H       2.35       2.01       8.99
H      11.49      15.03       9.10
H      15.14      28.80       9.48
H      16.41       2.90       8.35
H      14.92       1.93       8.36
H      15.32       2.94       6.97
H      10.11      13.17      45.68
H       0.63       2.06      41.83
H       0.88       2.25      39.48
H       7.80      13.08      39.01
H      15.37       1.32      46.11
H      13.90       1.71      44.02
H      14.76       1.85      42.50
H      15.22       2.88      43.86
H      10.02      13.41      43.32
H       6.44      12.81      42.19
H       8.02      12.00      42.20
H       6.95      11.84      40.81
H       0.71       2.22      28.76
H       6.48      14.33      24.89
H       6.24      14.40      22.54
H       1.93       0.25      22.09
H       8.50      12.73      29.18
H       8.23      11.29      27.34
H       9.11      11.83      25.91
H       7.35      12.06      26.02
H       0.53       2.02      26.40
H      11.30      13.87      25.27
H       2.76       0.99      25.28
H       3.43       0.14      23.89
H       5.12       1.50       1.62
H       9.31       4.24       1.51
H      11.67       4.45       1.65
H      12.13       1.24      49.73
H       5.37       4.16      49.14
H       7.39       4.85      48.18
H       8.64       3.61      48.25
H       8.66       4.97      49.39
H       7.50       1.31       1.66
H       8.92       1.06      48.58
H       8.92      29.27      49.98
H       1.84      14.66      48.88
H      13.29       3.73      35.47
H       8.82       5.99      35.35
H       7.47       7.94      35.49
H      10.02       9.93      32.80
H      10.87       2.61      32.22
H       9.26       4.02      31.26
H       9.70       5.72      31.33
H       8.52       5.06      32.47
H      12.26       5.89      35.50
H      11.78       7.24      31.66
H      12.72       7.79      33.06
H      12.00       8.96      31.96
H       7.27       9.69      18.55
H       7.55       4.69      18.43
H       6.54       2.54      18.57
H       3.54       3.76      15.88
H       9.45       8.15      15.30
H       9.04       6.06      14.34
H       7.35       5.58      14.41
H       8.51       4.89      15.55
H       5.92       7.72      18.58
H       4.99       6.62      14.74
H       4.05       7.17      16.14
H       3.39       5.95      15.04
H       4.97      19.87       0.13
H       7.32      20.30       0.09
H       9.86      20.30       0.07
H      12.21      19.85       0.00
H      11.44      15.69       0.14
H       5.73      15.71       0.35
H       8.75      16.33       3.07
H       0.10      26.83       3.88
H       0.02      26.38       1.53
H       8.52      16.29      48.13
H      16.86      26.35      49.77
H      16.75      26.77      47.41
H      14.38      23.72      33.98
H      12.82      25.53      33.93
H      11.56      27.73      33.91
H       2.31      15.35      33.85
H       6.30      16.76      33.98
H       0.68      26.46      34.18
H      15.52      28.75      36.88
H      10.79      16.02      37.72
H      11.22      16.20      35.37
H      15.72      28.59      31.20
H      11.24      16.20      32.83
H      10.89      15.96      30.47
H      14.80      15.29      17.06
H       5.54      27.69      17.02
H       4.27      25.50      16.99
H       2.71      23.68      16.93
H      16.41      26.43      17.06
H      10.81      16.71      17.27
H       1.38      28.45      19.99
H       6.34      16.03      20.80
H       5.98      16.32      18.45
H       1.46      28.66      14.29
H       5.96      16.33      15.91
H       6.35      16.15      13.55
H       6.43      14.19      11.84
H       1.50      27.80       7.97
H       1.57      27.56       5.61
H       7.51      16.24       5.17
H       1.87       1.04      12.25
H      11.72      16.18      10.42
H      10.81      16.67       8.99
H       3.03       0.38       9.10
H       6.68      14.14       9.48
H       7.95      17.55       8.35
H       6.46      16.59       8.36
H       6.86      17.60       6.97
H       1.36      27.63      45.64
H       9.25      16.75      41.81
H       9.43      16.93      39.46
H      16.18      27.71      38.97
H       6.85      15.80      46.10
H       5.74      16.76      44.26
H       5.77      15.73      42.83
H       6.85      17.14      42.94
H       1.24      27.85      43.28
H      14.72      27.43      42.12
H      16.28      26.58      42.12
H      15.23      26.48      40.72
H       9.15      16.87      28.76
H      14.95      28.99      24.90
H      14.70      29.05      22.54
H      10.39      14.91      22.09
H       0.05      27.39      29.18
H      16.69      25.95      27.34
H       0.64      26.48      25.91
H      15.81      26.72      26.03
H       8.99      16.67      26.40
H       2.84      28.52      25.27
H      11.21      15.64      25.28
H      11.89      14.79      23.89
H      13.59      16.15       1.63
H       0.85      18.89       1.51
H       3.22      19.09       1.65
H       3.67      15.88      49.72
H      13.83      18.81      49.14
H      15.85      19.50      48.18
H       0.18      18.27      48.25
H       0.20      19.62      49.39
H      15.97      15.96       1.66
H       0.46      15.71      48.58
H       0.46      14.62      49.98
H      10.30       0.01      48.89
H       4.83      18.39      35.47
H       0.36      20.64      35.35
H      15.93      22.59      35.49
H       1.56      24.58      32.80
H       2.41      17.27      32.22
H       0.80      18.67      31.26
H       1.24      20.37      31.33
H       0.06      19.71      32.47
H       3.80      20.55      35.50
H       3.32      21.89      31.66
H       4.26      22.44      33.06
H       3.54      23.62      31.96
H      15.73      24.34      18.55
H      16.01      19.34      18.43
H      15.00      17.20      18.57
H      12.00      18.41      15.88
H       0.99      22.81      15.30
H       0.58      20.71      14.34
H      15.81      20.24      14.41
H       0.05      19.54      15.55
H      14.38      22.37      18.58
H      13.45      21.28      14.74
H      12.51      21.82      16.14
H      11.85      20.61      15.04
