22

C       2.95       0.91       1.83
C       2.70       1.50       3.21
C       1.76       1.08       4.04
C       1.55       1.72       5.31
C       2.20       2.70       5.78
C       3.43       2.52       3.67
C       2.48       4.92       8.92
C       2.72       4.33       7.54
C       3.67       4.75       6.72
C       3.87       4.12       5.44
C       3.22       3.13       4.97
C       1.99       3.32       7.08
H       1.21       0.37       3.79
H       0.88       1.37       5.85
H       4.11       2.85       3.13
H       4.21       5.47       6.96
H       4.54       4.46       4.90
H       1.32       2.98       7.63
O       2.42      -0.21       1.65
O       3.60       1.58       1.02
O       3.00       6.04       9.11
O       1.82       4.25       9.73
