22

C      -1.21       6.75       8.92
C      -0.97       7.33       7.54
C      -0.02       6.91       6.72
C       0.18       7.55       5.44
C      -0.47       8.53       4.97
C      -1.70       8.35       7.08
C      -0.74      10.75       1.83
C      -0.98      10.17       3.21
C      -1.93      10.59       4.04
C      -2.13       9.95       5.31
C      -1.49       8.96       5.78
C      -0.26       9.15       3.67
H       0.52       6.20       6.96
H       0.86       7.20       4.90
H      -2.37       8.69       7.63
H      -2.47      11.30       3.79
H      -2.81      10.30       5.85
H       0.42       8.81       3.13
O      -0.69       5.63       9.11
O      -1.87       7.41       9.73
O      -1.27      11.87       1.65
O      -0.09      10.09       1.02
