44

Nd       1.70       1.15       6.11
Nd       3.56       3.25       8.96
Nd       2.68       5.25      12.54
C       0.56       4.06       7.55
Nd      -0.37       1.78       2.54
O       2.61       4.49      14.76
O       1.47       3.13      13.40
O       2.02       1.51       8.95
O       0.90      -0.14       7.95
C       1.35       2.74      15.81
C       1.83       3.47      14.58
C      -1.51       0.27       4.88
C       4.87       3.18      12.24
C      -0.58       8.08      12.71
C       0.52       7.08      12.62
C       1.35       0.41       9.01
C       4.09       6.54      10.20
C       1.95      -0.12       2.86
C      -3.55       4.73       2.37
C      -2.43       3.74       2.45
C       4.27       3.69       6.08
O       3.43       5.41      10.06
O       2.07       0.80       3.79
O       0.87      -0.27       2.23
O       4.33       6.97      11.36
O      -2.51       2.75       3.26
O      -1.40       3.89       1.70
O       3.74       0.12       6.80
O       4.86       1.37       8.30
O       1.59       4.31       8.26
O       0.42       3.00       6.84
O      -0.45       1.06       5.03
O      -1.89      -0.02       3.73
O       3.97       2.95      11.32
O       4.90       4.27      12.88
O       0.50       6.05      13.38
O       1.50       7.26      11.80
C       4.75       0.34       7.55
O       3.26       2.89       6.14
O       4.75       4.20       7.15
C       1.97       3.40      -0.72
O       1.57       3.27       1.68
O       0.41       1.92       0.32
C       1.30       2.85       0.50
