18

H      13.33       3.68       8.73
H      12.69       0.44      11.48
H      16.39       2.62      11.56
O      17.10       4.24       9.86
O      15.37       5.28       8.84
O      11.11       2.36       8.44
O      11.20       0.41       9.61
O      14.17       0.03      13.57
O      16.28       0.67      13.11
C      14.94       3.29      10.12
C      13.69       3.05       9.54
C      12.91       1.98       9.99
C      13.33       1.23      11.09
C      14.56       1.48      11.69
C      15.39       2.48      11.16
C      15.83       4.38       9.56
C      11.64       1.60       9.27
C      14.99       0.67      12.87
