17

O       5.15       5.28       3.35
C       1.12       6.73       8.31
C       1.94       6.15       7.34
H       1.97       5.07       7.23
C       3.36       5.19       4.89
H       0.49       6.12       8.95
H       2.03       9.94       7.71
C       4.25       4.55       3.89
H       0.54       8.64       9.19
C       3.60       6.38       5.48
N       2.78       8.31       6.67
C       1.98       8.85       7.62
O       4.03       3.32       3.66
H       4.45       6.97       5.16
H       2.49       4.60       5.16
C       1.15       8.12       8.45
C       2.75       6.95       6.52
