17

H       9.02       4.15       5.94
H       6.56       3.85       6.13
H       5.26       5.42       7.60
H      10.09       6.13       7.08
C       4.54       8.25      10.60
O       3.46       7.77      11.10
N       8.33       6.80       7.91
C       6.34       7.54       9.01
H       4.54       6.45       9.36
C       5.14       7.34       9.58
C       6.33       5.53       7.47
C       8.43       4.82       6.55
H       6.91       8.43       9.29
C       9.03       5.91       7.18
C       7.05       4.65       6.68
C       7.00       6.60       8.10
O       5.11       9.33      10.90
