17

C       3.42      -0.26      12.49
H       0.09      -0.50      15.64
C       0.30       1.92      16.91
C       2.56      -2.38      13.17
C       2.61       0.33      13.45
H       4.05       0.35      11.84
C       3.40      -1.64      12.34
N       1.77      -1.83      14.12
O       0.51       3.15      17.14
H       2.57       1.41      13.57
C       1.80      -0.48      14.27
H       4.00      -2.16      11.60
H       2.06       1.88      15.63
C       1.18       1.29      15.90
H       2.52      -3.46      13.09
O      -0.61       1.19      17.44
C       0.95       0.10      15.31
