17

H       4.67      -3.23      19.78
C       5.36      -5.59      18.50
C       6.70      -7.25      17.56
H       3.63      -6.14      19.69
O       3.07      -2.69      21.53
H       6.85      -8.32      17.45
O       2.15      -4.77      21.30
C       2.99      -3.87      21.01
C       7.51      -6.31      16.93
H       8.35      -6.63      16.31
H       7.79      -4.21      16.53
C       7.20      -4.96      17.07
N       5.63      -6.90      18.29
H       5.88      -3.54      18.01
C       4.27      -5.30      19.42
C       6.13      -4.59      17.88
C       4.05      -4.10      20.00
