17

H       2.69      10.87       2.68
H       7.24      12.59       3.18
H       3.40      12.72       1.20
C       6.21      12.26       3.06
O       9.58      11.26       6.75
H       5.75      13.63       1.45
C       8.50      10.64       6.51
H       6.29       9.61       5.24
C       6.56      10.61       4.92
C       5.39      12.82       2.09
C       3.69      11.28       2.77
H       7.85      12.27       5.24
C       5.73      11.22       3.88
N       4.47      10.72       3.72
O       8.13       9.53       7.04
C       7.60      11.24       5.50
C       4.09      12.33       1.94
