912

H      23.69       1.10      21.52
H      23.69       1.03      19.12
H       1.91      25.31      21.56
H       1.92      25.26      19.16
H      25.47      23.30      18.42
H      25.49      21.51      16.64
H       0.06      25.14      14.78
H       0.04       1.06      13.11
H       0.15       2.97      18.44
H       0.17       4.75      16.64
H      23.70       5.43      13.65
H      23.73       7.83      13.63
H       2.16       5.37      14.22
H       2.19       7.77      14.21
H      25.70       4.70      11.25
H      25.66       2.90       9.47
H       0.02      21.45      11.25
H       0.06      23.23       9.45
H       2.09       0.65       8.82
H       2.15       0.63       6.43
H      23.68      25.50       8.72
H      23.75      25.47       6.32
H      23.57      20.79      14.27
H      23.58      18.39      14.30
H       2.03      18.41      13.68
H       2.02      20.80      13.66
H      25.15      23.70      72.97
H      25.22      23.69      70.57
H       0.93       1.91      73.01
H       0.98       1.92      70.61
H       2.94      25.48      69.86
H       4.73      25.49      68.08
H       1.10       0.05      66.23
H      25.18       0.01      64.56
H      23.27       0.16      69.89
H      21.49       0.17      68.09
H      20.80      23.69      65.10
H      18.41      23.72      65.09
H      20.87       2.15      65.66
H      18.47       2.18      65.66
H      21.54      25.67      62.70
H      23.33      25.60      60.92
H       4.79      25.70      62.69
H       3.00      25.71      60.89
H      25.59       2.00      60.22
H      25.61       2.01      57.83
H       0.73      23.59      60.21
H       0.75      23.60      57.81
H       5.45      23.56      65.72
H       7.85      23.57      65.75
H       7.82       2.02      65.11
H       5.43       2.01      65.08
H       2.60       0.47      83.47
H       2.62       0.50      85.87
H      24.14      25.62      83.52
H      24.16      25.66      85.91
H       0.51      23.27      86.61
H       0.51      21.48      88.40
H       0.58      25.12      90.24
H       0.50       1.05      91.90
H       0.54       2.94      86.56
H       0.52       4.73      88.36
H       2.54       5.42      91.43
H       2.50       7.81      91.45
H      24.10       5.36      90.70
H      24.07       7.76      90.70
H       0.45       4.69      93.75
H       0.47       2.91      95.54
H       0.57      21.44      93.79
H       0.52      23.24      95.58
H      24.13       0.58      96.24
H      24.12       0.58      98.64
H       2.57      25.59      96.26
H       2.56      25.59      98.66
H       2.63      20.78      90.67
H       2.63      18.38      90.63
H      24.21      18.39      91.44
H      24.21      20.78      91.47
H       0.47      23.64      32.02
H       0.51      23.62      34.42
H      25.63       2.11      32.08
H      25.67       2.08      34.47
H      23.28       0.02      35.17
H      21.50       0.01      36.97
H      25.15      25.65      38.80
H       1.08      25.71      40.45
H       2.95      25.70      35.10
H       4.75      25.71      36.90
H       5.45      23.70      39.98
H       7.85      23.74      40.00
H       5.38       2.13      39.23
H       7.78       2.16      39.23
H       4.73       0.07      42.28
H       2.95       0.05      44.08
H      21.48      25.65      42.36
H      23.28      25.70      44.15
H       0.61       2.12      44.77
H       0.63       2.16      47.16
H      25.64      23.68      44.84
H      25.65      23.72      47.24
H      20.81      23.60      39.23
H      18.41      23.61      39.20
H      18.42       2.03      40.02
H      20.81       2.02      40.05
H      23.17      22.63      28.56
H      23.27      22.16      26.15
H       1.49       1.66      25.31
H       1.41       2.12      27.64
H       0.81      24.52      23.75
H       0.11       1.78      29.77
H       3.62      23.18      80.00
H       4.09      23.27      77.59
H      24.59       1.49      76.75
H      24.13       1.41      79.09
H       1.73       0.82      75.20
H      24.47       0.11      81.22
H       4.53       0.15     101.91
H       4.99       0.19       1.44
H      24.23       0.40       2.65
H      23.77       0.34       0.33
H       1.78       0.78       4.15
H      24.47       0.35     100.95
H       0.33       4.21      50.36
H       0.30       4.73      52.77
H       0.09      24.00      54.14
H       0.15      23.49      51.83
H      25.44       1.59      55.56
H       0.09      24.14      49.54
H       4.22      10.96      13.99
H       4.74      13.37      13.96
H      24.01      14.73      13.75
H      23.50      12.42      13.81
H       1.59      16.15      13.36
H      24.14      10.14      13.79
H      15.28       4.21      65.44
H      12.87       4.73      65.40
H      11.51      24.00      65.20
H      13.82      23.49      65.26
H      10.09       1.59      64.81
H      16.10      24.14      65.24
H      22.03      10.94      91.01
H      21.50      13.34      91.05
H       2.23      14.72      91.27
H       2.75      12.41      91.21
H      24.65      16.13      91.68
H       2.10      10.12      91.25
H      10.96       4.22      39.57
H      13.37       4.74      39.61
H      14.74      24.01      39.83
H      12.44      23.50      39.76
H      16.16       1.60      40.22
H      10.15      24.15      39.82
H       5.97       9.10      25.52
H       5.97       9.03      23.12
H       9.91       7.59      25.56
H       9.92       7.54      23.16
H       7.75       5.58      22.42
H       7.77       3.79      20.64
H       8.06       7.42      18.78
H       8.04       9.06      17.11
H       8.15      10.97      22.44
H       8.17      12.75      20.64
H       5.98      13.43      17.65
H       6.01      15.83      17.63
H      10.16      13.37      18.22
H      10.19      15.77      18.21
H       7.98      12.70      15.25
H       7.94      10.90      13.47
H       8.02       3.73      15.25
H       8.06       5.51      13.45
H      10.09       8.65      12.82
H      10.15       8.63      10.43
H       5.96       7.77      12.72
H       6.02       7.75      10.32
H       5.85       3.07      18.27
H       5.86       0.67      18.30
H      10.03       0.69      17.68
H      10.02       3.08      17.66
H       7.42       5.97      76.97
H       7.50       5.97      74.57
H       8.93       9.91      77.01
H       8.98       9.92      74.61
H      10.94       7.76      73.86
H      12.73       7.77      72.08
H       9.10       8.05      70.23
H       7.45       8.01      68.56
H       5.55       8.16      73.89
H       3.77       8.17      72.09
H       3.08       5.96      69.10
H       0.69       6.00      69.09
H       3.15      10.15      69.66
H       0.75      10.18      69.66
H       3.82       7.94      66.70
H       5.61       7.88      64.92
H      12.79       7.98      66.69
H      11.00       7.99      64.89
H       7.87      10.00      64.22
H       7.89      10.01      61.83
H       8.73       5.86      64.21
H       8.75       5.88      61.81
H      13.45       5.84      69.72
H      15.85       5.85      69.75
H      15.82      10.02      69.11
H      13.43      10.01      69.08
H      10.60       8.47      87.47
H      10.62       8.50      89.87
H       6.42       7.90      87.52
H       6.44       7.94      89.91
H       8.51       5.55      90.61
H       8.51       3.76      92.40
H       8.58       7.40      94.24
H       8.50       9.05      95.90
H       8.54      10.94      90.56
H       8.52      12.73      92.36
H      10.54      13.42      95.43
H      10.50      15.81      95.45
H       6.38      13.36      94.70
H       6.35      15.76      94.70
H       8.45      12.69      97.75
H       8.47      10.91      99.54
H       8.57       3.72      97.79
H       8.52       5.51      99.58
H       6.41       8.58     100.24
H       6.40       8.58     102.64
H      10.57       7.87     100.26
H      10.56       7.87     102.66
H      10.63       3.06      94.67
H      10.63       0.66      94.63
H       6.48       0.67      95.44
H       6.49       3.06      95.47
H       8.47       5.92      36.02
H       8.51       5.90      38.42
H       7.91      10.11      36.08
H       7.95      10.08      38.47
H       5.56       8.02      39.17
H       3.78       8.01      40.97
H       7.43       7.92      42.80
H       9.08       7.99      44.45
H      10.95       7.98      39.10
H      12.75       7.99      40.90
H      13.45       5.97      43.98
H      15.85       6.01      44.00
H      13.38      10.13      43.23
H      15.78      10.17      43.23
H      12.73       8.07      46.28
H      10.95       8.05      48.08
H       3.76       7.93      46.36
H       5.56       7.98      48.15
H       8.61      10.12      48.77
H       8.63      10.16      51.16
H       7.92       5.96      48.84
H       7.93       6.00      51.24
H       3.08       5.88      43.23
H       0.68       5.89      43.20
H       0.70      10.03      44.02
H       3.09      10.02      44.05
H       5.45       4.91      32.56
H       5.54       4.44      30.15
H       9.49       9.66      29.31
H       9.41      10.12      31.64
H       8.81       6.80      27.75
H       8.11       9.78      33.77
H      11.62       5.45      84.00
H      12.09       5.55      81.59
H       6.87       9.49      80.75
H       6.41       9.41      83.09
H       9.73       8.82      79.20
H       6.74       8.11      85.22
H      12.53       8.15       3.02
H      12.99       8.19       5.44
H       6.51       8.40       6.65
H       6.05       8.34       4.33
H       9.78       8.78       8.15
H       6.75       8.35       2.06
H       8.33      12.21      54.36
H       8.30      12.73      56.77
H       8.09       6.28      58.14
H       8.15       5.77      55.83
H       7.72       9.59      59.56
H       8.09       6.42      53.54
H      12.22      18.96      17.99
H      12.74      21.37      17.96
H       6.28      22.73      17.75
H       5.77      20.42      17.81
H       9.59      24.15      17.36
H       6.42      18.14      17.79
H      23.28      12.21      69.44
H      20.87      12.73      69.40
H      19.51       6.28      69.20
H      21.82       5.77      69.26
H      18.09       9.59      68.81
H      24.10       6.42      69.24
H       4.31      18.94      95.01
H       3.78      21.34      95.05
H      10.23      22.72      95.27
H      10.75      20.41      95.21
H       6.93      24.13      95.68
H      10.10      18.12      95.25
H      18.96      12.22      43.57
H      21.37      12.74      43.61
H      22.74       6.29      43.83
H      20.44       5.78      43.76
H      24.16       9.60      44.22
H      18.15       6.42      43.82
C      25.54      23.49      17.42
C      25.54      22.52      16.44
C      25.63      23.14      15.19
C      25.64      24.74      16.79
C      25.68       0.27      17.47
C       0.01       1.53      16.82
C       0.05       3.11      15.22
C       0.11       3.75      16.46
C       0.10       2.78      17.44
C       0.04       3.75      13.95
C       0.00       3.07      12.70
C      25.71       1.47      11.10
C      25.68       2.72      10.47
C      25.70       3.69      11.45
C      25.71       0.21      10.42
C      25.71      24.67      11.08
C      25.70      23.09      12.67
C       0.01      22.45      11.43
C       0.03      23.42      10.45
C      25.66      22.45      13.94
C      25.65      21.02      13.96
C       1.14      20.30      13.79
C       1.14      18.90      13.80
C      25.66      18.16      13.98
C      24.46      18.89      14.16
C      24.45      20.30      14.14
C       0.02       0.22       8.99
C       1.22       0.46       8.30
C       1.26       0.45       6.89
C       0.09       0.20       6.13
C      24.61      25.67       6.83
C      24.57      25.68       8.24
C       0.06       5.18      13.93
C      24.59       5.92      13.77
C      24.61       7.33      13.76
C       0.11       8.04      13.93
C       1.30       7.29      14.09
C       1.28       5.88      14.09
C      25.66       0.27      18.91
C      24.52       0.71      19.62
C       1.07      25.58      19.65
C       1.06      25.60      21.06
C      25.65       0.32      21.77
C      24.53       0.76      21.03
C       2.75      25.54      68.86
C       3.73      25.55      67.89
C       3.11      25.62      66.64
C       1.50      25.64      68.24
C       0.25      25.68      68.92
C      24.71       0.01      68.26
C      23.13       0.04      66.67
C      22.49       0.11      67.91
C      23.47       0.10      68.89
C      22.49       0.03      65.40
C      23.17      25.70      64.15
C      24.77      25.66      62.55
C      23.52      25.63      61.92
C      22.54      25.66      62.90
C       0.30      25.65      61.87
C       1.56      25.66      62.52
C       3.15      25.67      64.12
C       3.78      25.69      62.87
C       2.81      25.69      61.89
C       3.79      25.64      65.39
C       5.22      25.64      65.40
C       5.93       1.12      65.22
C       7.34       1.13      65.23
C       8.08      25.65      65.42
C       7.35      24.45      65.61
C       5.94      24.44      65.59
C       0.29      25.65      60.44
C       0.05       1.12      59.72
C       0.06       1.12      58.31
C       0.31      25.66      57.58
C       0.56      24.47      58.30
C       0.55      24.46      59.71
C      21.06       0.05      65.38
C      20.32      24.58      65.22
C      18.91      24.60      65.21
C      18.20       0.10      65.38
C      18.95       1.29      65.54
C      20.36       1.27      65.54
C       0.26      25.66      70.36
C      25.54      24.53      71.07
C       0.67       1.08      71.09
C       0.65       1.07      72.50
C       0.20      25.65      73.22
C      25.49      24.53      72.48
C       0.52      23.46      87.61
C       0.52      22.49      88.59
C       0.55      23.11      89.84
C       0.53      24.71      88.23
C       0.54       0.24      87.55
C       0.53       1.51      88.20
C       0.50       3.09      89.79
C       0.52       3.73      88.54
C       0.53       2.75      87.56
C       0.48       3.74      91.05
C       0.48       3.06      92.31
C       0.48       1.46      93.91
C       0.47       2.71      94.54
C       0.46       3.69      93.56
C       0.49       0.21      94.59
C       0.52      24.67      93.95
C       0.55      23.08      92.36
C       0.56      22.45      93.60
C       0.53      23.42      94.58
C       0.56      22.44      91.09
C       0.56      21.01      91.08
C      25.09      20.28      91.30
C      25.09      18.88      91.29
C       0.56      18.15      91.04
C       1.75      18.88      90.81
C       1.76      20.29      90.83
C       0.49       0.22      96.03
C      25.01       0.43      96.74
C      25.00       0.43      98.15
C       0.48       0.22      98.88
C       1.67       0.02      98.16
C       1.68       0.02      96.75
C       0.46       5.17      91.06
C       1.65       5.90      91.28
C       1.63       7.31      91.28
C       0.42       8.02      91.07
C      24.96       7.28      90.86
C      24.98       5.87      90.86
C       0.53       0.23      86.12
C       1.73       0.38      85.39
C      25.04       0.05      85.41
C      25.03       0.03      84.00
C       0.51       0.19      83.26
C       1.72       0.36      83.98
C      23.48      25.72      36.17
C      22.50      25.72      37.15
C      23.14      25.68      38.40
C      24.73      25.70      36.79
C       0.25      25.70      36.10
C       1.52      25.70      36.75
C       3.11       0.01      38.33
C       3.74      25.72      37.08
C       2.77      25.71      36.11
C       3.76       0.02      39.60
C       3.09       0.02      40.85
C       1.50       0.02      42.46
C       2.75       0.04      43.08
C       3.72       0.05      42.10
C       0.25       0.01      43.15
C      24.71      25.70      42.51
C      23.11      25.68      40.92
C      22.48      25.67      42.17
C      23.46      25.69      43.14
C      22.46      25.67      39.66
C      21.03      25.67      39.65
C      20.31       1.14      39.87
C      18.91       1.14      39.86
C      18.18      25.67      39.61
C      18.90      24.49      39.38
C      20.31      24.48      39.40
C       0.27       0.03      44.58
C       0.47       1.24      45.28
C       0.48       1.27      46.69
C       0.29       0.09      47.44
C       0.08      24.60      46.73
C       0.07      24.57      45.32
C       5.19       0.05      39.60
C       5.93      24.58      39.82
C       7.34      24.61      39.83
C       8.05       0.09      39.61
C       7.30       1.27      39.39
C       5.90       1.25      39.39
C       0.24      25.71      34.67
C       0.38      24.51      33.94
C       0.06       1.20      33.96
C       0.04       1.21      32.55
C       0.19       0.01      31.81
C       0.36      24.53      32.53
C       0.24      25.66      25.36
C      25.22      24.83      26.23
C      25.17      25.10      27.63
C       0.16       0.48      28.18
C       0.88       1.31      27.29
C       0.93       1.04      25.91
C      23.72      23.22      27.93
C      23.78      22.95      26.55
C       0.37      25.37      24.01
C       0.13       0.82      29.53
C       0.59       0.24      76.80
C       1.42      25.22      77.68
C       1.15      25.17      79.08
C       0.05       0.16      79.63
C      24.94       0.89      78.74
C      25.21       0.93      77.35
C       3.03      23.72      79.37
C       3.30      23.78      78.00
C       0.88       0.37      75.45
C      25.43       0.13      80.98
C       0.63       0.34       2.50
C       1.68       0.28       1.55
C       1.41       0.25       0.14
C       0.07       0.27     102.55
C      24.76       0.31       0.63
C      25.03       0.35       2.01
C       3.77       0.18     102.59
C       4.03       0.20       1.08
C       0.89       0.45       3.87
C      25.44       0.28     101.19
C       0.16       0.40      53.94
C       0.21       1.42      52.96
C       0.24       1.12      51.56
C       0.21      25.49      51.11
C       0.18      24.48      52.10
C       0.15      24.78      53.47
C       0.30       3.47      51.07
C       0.28       3.77      52.43
C       0.05       0.69      55.30
C       0.19      25.10      49.76
C       0.40      14.53      13.82
C       1.43      13.55      13.87
C       1.12      12.16      13.90
C      25.50      11.70      13.87
C      24.48      12.69      13.84
C      24.78      14.07      13.81
C       3.47      11.66      13.96
C       3.77      13.03      13.94
C       0.69      15.89      13.71
C      25.11      10.35      13.86
C      11.71       0.40      65.26
C      12.69       1.43      65.32
C      14.08       1.12      65.34
C      14.54      25.49      65.32
C      13.55      24.48      65.28
C      12.17      24.78      65.25
C      14.58       3.47      65.41
C      13.21       3.77      65.39
C      10.35       0.69      65.16
C      15.89      25.11      65.31
C       0.12      14.51      91.20
C      24.81      13.53      91.14
C      25.12      12.14      91.11
C       0.74      11.69      91.14
C       1.76      12.68      91.18
C       1.45      14.05      91.21
C      22.77      11.64      91.05
C      22.47      13.01      91.06
C      25.54      15.87      91.32
C       1.13      10.34      91.16
C      14.54       0.41      39.76
C      13.56       1.44      39.70
C      12.17       1.13      39.67
C      11.71      25.50      39.70
C      12.71      24.49      39.74
C      14.08      24.79      39.77
C      11.67       3.48      39.60
C      13.04       3.78      39.62
C      15.90       0.71      39.87
C      10.36      25.11      39.71
C       7.82       5.77      21.42
C       7.82       4.79      20.44
C       7.90       5.41      19.19
C       7.92       7.02      20.79
C       7.96       8.27      21.47
C       8.01       9.53      20.82
C       8.05      11.11      19.22
C       8.11      11.75      20.46
C       8.10      10.78      21.44
C       8.04      11.75      17.95
C       8.00      11.07      16.70
C       7.98       9.47      15.10
C       7.96      10.72      14.47
C       7.98      11.69      15.45
C       7.99       8.21      14.42
C       7.99       6.95      15.08
C       7.97       5.37      16.67
C       8.01       4.73      15.43
C       8.03       5.70      14.45
C       7.93       4.73      17.94
C       7.93       3.30      17.96
C       9.14       2.58      17.79
C       9.14       1.17      17.80
C       7.94       0.44      17.98
C       6.74       1.17      18.16
C       6.73       2.58      18.14
C       8.02       8.22      12.99
C       9.22       8.46      12.30
C       9.26       8.45      10.89
C       8.09       8.20      10.13
C       6.89       7.94      10.83
C       6.85       7.96      12.24
C       8.06      13.18      17.93
C       6.87      13.92      17.77
C       6.89      15.33      17.76
C       8.11      16.04      17.93
C       9.30      15.29      18.09
C       9.28      13.88      18.09
C       7.94       8.27      22.91
C       6.80       8.71      23.62
C       9.07       7.85      23.65
C       9.06       7.88      25.06
C       7.93       8.32      25.77
C       6.80       8.76      25.03
C      10.75       7.82      72.86
C      11.73       7.83      71.89
C      11.11       7.90      70.64
C       9.50       7.92      72.24
C       8.25       7.96      72.92
C       6.99       8.01      72.26
C       5.41       8.04      70.67
C       4.77       8.11      71.91
C       5.74       8.10      72.89
C       4.77       8.03      69.40
C       5.45       7.98      68.15
C       7.05       7.94      66.55
C       5.80       7.91      65.92
C       4.82       7.94      66.90
C       8.30       7.93      65.87
C       9.56       7.94      66.52
C      11.15       7.94      68.12
C      11.78       7.97      66.87
C      10.81       7.97      65.89
C      11.79       7.92      69.39
C      13.22       7.92      69.40
C      13.93       9.12      69.22
C      15.34       9.13      69.23
C      16.08       7.93      69.42
C      15.35       6.73      69.61
C      13.94       6.72      69.59
C       8.29       7.93      64.44
C       8.05       9.12      63.72
C       8.06       9.12      62.31
C       8.31       7.94      61.58
C       8.56       6.75      62.30
C       8.55       6.74      63.71
C       3.34       8.05      69.38
C       2.60       6.86      69.22
C       1.19       6.88      69.21
C       0.48       8.10      69.38
C       1.23       9.29      69.54
C       2.64       9.27      69.54
C       8.26       7.94      74.36
C       7.81       6.80      75.07
C       8.67       9.08      75.09
C       8.65       9.07      76.50
C       8.20       7.93      77.22
C       7.77       6.81      76.48
C       8.52       5.74      91.61
C       8.52       4.76      92.59
C       8.55       5.39      93.84
C       8.53       6.99      92.23
C       8.54       8.24      91.55
C       8.53       9.51      92.20
C       8.50      11.09      93.79
C       8.52      11.73      92.54
C       8.53      10.75      91.56
C       8.48      11.74      95.05
C       8.48      11.06      96.31
C       8.48       9.46      97.91
C       8.47      10.71      98.54
C       8.46      11.69      97.56
C       8.49       8.21      98.59
C       8.52       6.95      97.95
C       8.55       5.36      96.36
C       8.56       4.73      97.60
C       8.53       5.70      98.58
C       8.56       4.71      95.09
C       8.56       3.28      95.08
C       7.37       2.56      95.30
C       7.37       1.15      95.29
C       8.56       0.43      95.04
C       9.75       1.15      94.81
C       9.76       2.56      94.83
C       8.49       8.22     100.03
C       7.29       8.43     100.74
C       7.28       8.43     102.15
C       8.48       8.22     102.88
C       9.67       8.02     102.16
C       9.68       8.02     100.75
C       8.46      13.17      95.06
C       9.65      13.90      95.28
C       9.63      15.31      95.28
C       8.42      16.02      95.07
C       7.24      15.28      94.86
C       7.26      13.87      94.86
C       8.53       8.23      90.12
C       9.73       8.38      89.39
C       7.32       8.05      89.41
C       7.31       8.03      88.00
C       8.51       8.19      87.26
C       9.72       8.36      87.98
C       5.75       8.00      40.17
C       4.78       7.99      41.15
C       5.41       7.96      42.40
C       7.01       7.98      40.79
C       8.25       7.98      40.10
C       9.52       7.98      40.75
C      11.11       8.01      42.33
C      11.74       7.99      41.08
C      10.77       7.98      40.11
C      11.76       8.02      43.60
C      11.09       8.02      44.85
C       9.50       8.02      46.46
C      10.75       8.04      47.08
C      11.72       8.05      46.10
C       8.25       8.01      47.15
C       6.98       7.98      46.51
C       5.39       7.95      44.92
C       4.76       7.94      46.17
C       5.74       7.97      47.14
C       4.74       7.95      43.66
C       3.31       7.94      43.65
C       2.59       9.14      43.87
C       1.18       9.14      43.86
C       0.45       7.95      43.61
C       1.18       6.76      43.38
C       2.59       6.75      43.40
C       8.27       8.03      48.58
C       8.47       9.24      49.28
C       8.48       9.27      50.69
C       8.29       8.09      51.44
C       8.08       6.87      50.73
C       8.07       6.85      49.32
C      13.19       8.05      43.60
C      13.93       6.86      43.82
C      15.34       6.89      43.83
C      16.05       8.09      43.61
C      15.30       9.27      43.39
C      13.90       9.25      43.39
C       8.24       7.99      38.67
C       8.38       6.79      37.94
C       8.06       9.20      37.96
C       8.04       9.21      36.55
C       8.19       8.01      35.81
C       8.36       6.81      36.53
C       8.24       7.94      29.36
C       7.50       7.11      30.23
C       7.45       7.38      31.63
C       8.16       8.48      32.18
C       8.88       9.31      31.29
C       8.93       9.04      29.91
C       6.00       5.49      31.93
C       6.05       5.23      30.55
C       8.37       7.65      28.01
C       8.13       8.82      33.53
C       8.59       8.24      80.80
C       9.42       7.50      81.68
C       9.15       7.45      83.08
C       8.05       8.16      83.63
C       7.22       8.89      82.74
C       7.48       8.93      81.35
C      11.03       6.00      83.37
C      11.30       6.06      82.00
C       8.88       8.37      79.45
C       7.71       8.13      84.98
C       8.63       8.34       6.50
C       9.68       8.28       5.55
C       9.41       8.25       4.14
C       8.07       8.27       3.66
C       7.03       8.31       4.63
C       7.30       8.35       6.01
C      11.77       8.18       3.71
C      12.03       8.20       5.08
C       8.89       8.45       7.87
C       7.71       8.28       2.30
C       8.16       8.40      57.94
C       8.21       9.42      56.96
C       8.24       9.12      55.56
C       8.21       7.77      55.11
C       8.18       6.76      56.10
C       8.15       7.06      57.47
C       8.30      11.47      55.07
C       8.28      11.77      56.43
C       8.05       8.69      59.30
C       8.19       7.38      53.76
C       8.40      22.53      17.82
C       9.43      21.55      17.87
C       9.12      20.16      17.90
C       7.78      19.70      17.87
C       6.76      20.69      17.84
C       7.06      22.07      17.81
C      11.47      19.66      17.96
C      11.77      21.03      17.94
C       8.69      23.89      17.71
C       7.39      18.35      17.86
C      19.71       8.40      69.26
C      20.69       9.43      69.32
C      22.08       9.12      69.34
C      22.54       7.77      69.32
C      21.55       6.76      69.28
C      20.17       7.06      69.25
C      22.58      11.47      69.41
C      21.21      11.77      69.39
C      18.35       8.69      69.16
C      23.89       7.39      69.31
C       8.12      22.51      95.20
C       7.09      21.53      95.14
C       7.40      20.14      95.11
C       8.74      19.69      95.14
C       9.76      20.68      95.18
C       9.45      22.05      95.21
C       5.05      19.64      95.05
C       4.75      21.01      95.06
C       7.82      23.87      95.32
C       9.13      18.34      95.16
C      22.54       8.41      43.76
C      21.56       9.44      43.70
C      20.17       9.13      43.67
C      19.71       7.78      43.70
C      20.71       6.77      43.74
C      22.08       7.07      43.77
C      19.67      11.48      43.60
C      21.04      11.78      43.62
C      23.90       8.71      43.87
C      18.36       7.39      43.71
N      25.68      24.47      15.46
N      25.71       1.78      15.49
N       0.00       1.74      12.43
N      25.68      24.42      12.41
N       0.04       0.15       4.79
N       0.22       9.37      13.93
N      25.62       0.43      23.10
N      25.58      16.83      14.02
N       1.78      25.68      66.91
N      24.46      25.71      66.94
N      24.50      25.69      63.88
N       1.82      25.65      63.85
N       0.35      25.58      56.24
N      16.87       0.21      65.38
N       0.10      25.62      74.55
N       9.41      25.58      65.45
N       0.55      24.44      89.56
N       0.51       1.76      89.53
N       0.49       1.73      92.58
N       0.53      24.41      92.62
N       0.56       0.21     100.22
N       0.31       9.35      91.07
N       0.59       0.18      81.92
N       0.64      16.81      91.00
N      24.47      25.68      38.12
N       1.79      25.72      38.07
N       1.76       0.01      41.13
N      24.44      25.70      41.18
N       0.29       0.20      48.77
N       9.38       0.21      39.61
N       0.18      25.66      30.47
N      16.84      25.60      39.57
N      24.42      24.28      28.41
N      24.52      23.76      25.76
N       1.97      24.42      79.86
N       2.49      24.52      77.20
N       2.48       0.20     102.19
N       2.99       0.25       1.94
N       0.28       2.17      50.69
N       0.24       2.74      53.32
N       2.17      11.29      13.94
N       2.74      13.92      13.90
N      14.95       2.17      65.38
N      12.33       2.74      65.34
N      24.07      11.27      91.07
N      23.49      13.89      91.11
N      11.29       2.17      39.63
N      13.92       2.75      39.67
N       7.96       6.74      19.46
N       7.99       9.78      19.49
N       8.00       9.74      16.43
N       7.96       6.70      16.41
N       8.04       8.15       8.79
N       8.22      17.37      17.93
N       7.89       8.43      27.10
N       7.86      24.83      18.02
N       9.78       7.96      70.91
N       6.74       7.98      70.94
N       6.78       7.97      67.88
N       9.82       7.93      67.85
N       8.35       7.86      60.24
N      24.87       8.21      69.38
N       8.10       7.90      78.55
N      17.41       7.86      69.45
N       8.55       6.72      93.56
N       8.51       9.76      93.53
N       8.49       9.73      96.58
N       8.53       6.69      96.62
N       8.56       8.21       1.33
N       8.31      17.35      95.07
N       8.59       8.18      85.92
N       8.64      24.81      95.00
N       6.74       7.96      42.12
N       9.79       8.00      42.07
N       9.76       8.01      45.13
N       6.72       7.97      45.18
N       8.29       8.20      52.77
N      17.38       8.21      43.61
N       8.18       7.94      34.47
N      24.84       7.88      43.57
N       6.69       6.55      32.41
N       6.79       6.04      29.76
N       9.97       6.70      83.86
N      10.49       6.80      81.20
N      10.48       8.20       3.30
N      10.99       8.25       5.94
N       8.28      10.17      54.69
N       8.24      10.74      57.32
N      10.17      19.29      17.94
N      10.74      21.92      17.90
N      22.95      10.17      69.38
N      20.33      10.74      69.34
N       6.35      19.27      95.07
N       5.77      21.89      95.11
N      19.29      10.17      43.63
N      21.92      10.75      43.67
