20

C      11.09      27.54      12.84
Zn       8.34      27.90      13.95
O       5.84      29.36      12.49
O       5.84      26.44      15.40
C      11.09      28.25      15.05
Zn       5.61      27.90      13.95
C       6.98      26.03      15.82
C       6.98      29.76      12.08
C       2.86      26.79      14.31
C       2.86      29.00      13.59
N      10.41      27.90      13.95
N       3.54      27.90      13.95
O       8.11      26.44      12.49
O       8.11      29.35      15.41
C       6.97      26.03      12.09
O       5.84      26.44      12.51
O       5.84      29.36      15.39
C       6.97      29.76      15.81
O       8.11      26.46      15.41
O       8.11      29.33      12.49
