15

C       3.19      10.72      19.87
C       2.07      10.68      20.87
C       0.76      10.75      20.37
C      -0.32      10.69      21.25
C       1.11      10.59      23.07
C       2.25      10.63      22.26
C       3.57      10.45      22.94
N      -0.15      10.58      22.58
H       0.57      10.85      19.31
H      -1.35      10.70      20.89
H       1.21      10.50      24.15
O       4.12      11.58      20.01
O       3.08       9.96      18.85
O       4.37       9.58      22.45
O       3.79      11.10      24.01
