20

C       3.86       6.86      12.84
C       3.48       5.53      13.10
C       3.27       4.66      12.03
H       3.75       8.20      17.33
H       3.40       6.50      15.55
H       4.51       9.56      12.67
H       4.93      11.06      14.58
N       4.39       9.68      16.02
N       3.45       5.03      10.75
H       4.44       8.21      11.22
H       3.32       5.15      14.11
H       2.91       3.65      12.19
H       4.09       6.51       9.44
C       3.94       8.43      16.28
C       3.72       7.50      15.27
C       3.98       7.85      13.93
C       4.36       9.18      13.67
C       4.57      10.05      14.74
C       3.90       6.27      10.49
C       4.12       7.21      11.50
