15

O       4.77      12.10       5.48
N       8.00      11.41       9.20
C       7.08      11.29       6.99
C       8.16      11.33       7.86
H       6.64      11.48      10.77
O       3.71      10.48       6.63
H       7.27      11.21       5.92
H       9.19      11.31       7.50
C       4.65      11.33       6.49
C       5.77      11.36       7.49
O       3.47      12.43       9.06
O       4.06      10.96      10.67
C       6.74      11.40       9.69
C       5.60      11.39       8.89
C       4.28      11.58       9.57
