15

O       6.92       4.49      22.32
O       6.59       4.61      24.55
O       6.61       7.62      23.80
C       7.26       4.84      23.52
N      10.99       5.26      23.34
C       8.60       5.50      23.65
C       9.74       4.78      23.25
C      11.19       6.48      23.87
C      10.12       7.25      24.31
C       8.80       6.78      24.19
H       9.64       3.78      22.82
C       7.68       7.74      24.49
H      12.22       6.83      23.91
H      10.29       8.24      24.73
O       7.90       8.70      25.29
