54

C       2.84       3.65       1.85
C       5.68      11.19       0.81
C      10.57       9.87       0.91
C       5.34       5.99       0.35
C       4.36       4.99       0.49
C       3.72       4.80       1.72
C       4.12       5.53       2.85
C       5.08       6.55       2.72
C       5.62       7.24       3.97
C       7.13       7.63       3.95
C       7.53       8.73       2.98
C       8.83       8.75       2.41
C       9.15       9.66       1.37
C       8.09      10.41       0.81
C       6.78      10.37       1.36
C       6.58       9.66       2.54
C       5.53       6.86       1.42
C       6.25       5.11      -1.84
C       7.30       4.35      -2.37
C       8.50       4.26      -1.65
C       9.32       3.13      -1.79
C      10.29       2.85      -0.80
C      10.63       3.84       0.12
C      10.70       1.45      -0.57
C       6.44       5.84      -0.65
C       9.91       5.03       0.18
C       8.76       5.17      -0.61
C       7.76       6.04      -0.20
H       1.00       2.96       1.37
H      12.46       9.11       0.95
H       3.71       5.29       3.82
H       4.97       8.10       4.24
H       5.51       6.54       4.82
H       7.41       7.98       4.97
H       7.74       6.72       3.76
H       9.59       8.09       2.79
H       8.29      11.05      -0.04
H       5.61       9.73       3.02
H       6.17       7.68       1.22
H       5.26       5.01      -2.27
H       7.13       3.71      -3.21
H       9.07       2.38      -2.53
H      11.35       3.66       0.90
H      10.13       5.74       0.97
H       7.97       6.65       0.67
H       4.18       4.29      -0.31
O       1.62       3.75       1.39
O       3.41       2.49       2.06
O       4.40      11.03       1.17
O      11.49       8.98       1.21
O      10.90      11.01       0.31
O      11.25       1.11       0.57
O       6.06      12.26       0.17
O      10.20       0.53      -1.34
