53

H       7.58       8.41      17.96
H       9.43       8.40      19.61
H       4.94       4.11      17.96
H       3.09       4.11      19.61
H       8.41       7.58      15.72
H       8.40       9.43      14.07
H       4.11       4.94      15.72
H       4.11       3.09      14.07
H       8.41       4.94      15.72
H       8.40       3.09      14.07
H       4.11       7.58      15.72
H       4.11       9.43      14.07
H       7.58       4.11      17.96
H       9.43       4.11      19.61
H       4.94       8.41      17.96
H       3.09       8.40      19.61
C       7.98       7.46      18.31
C       9.02       7.47      19.23
C       4.54       5.05      18.31
C       3.50       5.05      19.23
C       7.46       7.98      15.37
C       7.47       9.02      14.45
C       5.05       4.54      15.37
C       5.05       3.50      14.45
C       7.46       4.54      15.37
C       7.47       3.50      14.45
C       5.05       7.98      15.37
C       5.05       9.02      14.45
C       7.98       5.05      18.31
C       9.02       5.05      19.23
C       4.54       7.46      18.31
C       3.50       7.47      19.23
C       7.46       6.26      17.81
C      10.68       6.26      20.67
C       9.56       6.26      19.69
C       5.05       6.26      17.81
C       1.83       6.26      20.67
C       2.96       6.26      19.69
C       6.26       7.46      15.87
C       6.26      10.68      13.01
C       6.26       9.56      13.99
C       6.26       5.05      15.87
C       6.26       1.83      13.01
C       6.26       2.96      13.99
C       6.26       6.26      16.84
O      11.12       7.40      21.06
O       1.39       5.12      21.06
O       7.40      11.12      12.62
O       5.12       1.39      12.62
O       7.40       1.39      12.62
O       5.12      11.12      12.62
O      11.12       5.12      21.06
O       1.39       7.40      21.06
