39

C      -2.57      20.55       6.52
C      -3.13      21.01       5.16
C      -3.78      20.05       4.36
C      -4.29      20.37       3.10
C      -4.25      21.70       2.66
C      -3.59      22.65       3.44
C      -3.03      22.31       4.68
C      -4.83      19.26       2.25
C      -4.94      22.20       1.42
C      -2.14      19.08       6.34
C      -1.37      18.85       5.20
C      -1.32      17.59       4.60
C      -2.00      16.51       5.18
C      -2.56      16.70       6.44
C      -2.65      17.97       7.02
C      -0.53      17.52       3.34
C      -2.33      15.27       4.39
C      -3.72      20.73       7.55
C      -1.34      21.38       7.00
H      -3.87      19.02       4.68
H      -3.54      23.68       3.10
H      -2.53      23.08       5.26
H      -0.91      19.67       4.66
H      -3.04      15.86       6.94
H      -3.19      18.08       7.95
O      -4.63      18.05       2.62
O      -5.45      19.59       1.18
O      -6.16      22.57       1.54
O      -4.29      22.39       0.34
O       0.09      16.45       3.05
O      -0.48      18.60       2.66
O      -1.98      14.13       4.83
O      -3.00      15.45       3.33
F      -4.24      21.98       7.50
F      -4.75      19.88       7.25
F      -3.34      20.48       8.82
F      -1.67      22.63       7.42
F      -0.43      21.52       5.99
F      -0.70      20.76       8.02
