39

C       1.22      14.06       5.07
C       0.66      15.81      10.86
C      -0.22      15.08      10.05
C      -0.62      13.80      10.39
C      -0.21      13.26      11.62
C       0.48      14.08      12.52
C       0.93      15.34      12.15
C      -1.44      13.09       9.35
C      -0.25      11.80      11.90
C       2.77      17.26      10.82
C       0.51      18.19      10.16
H       2.50      14.51       9.50
H       0.87      16.77       5.42
H       0.92      18.02       7.52
H      -0.50      15.45       9.07
H       0.78      13.65      13.47
H       1.56      15.91      12.83
O       3.45      12.67       6.46
O       2.15      12.06       8.21
O       1.61      14.39       3.91
O       0.52      13.02       5.32
O      -1.04      13.21       8.13
O      -2.51      12.53       9.69
O      -0.33      11.36      13.10
O      -0.20      11.00      10.91
F       3.55      16.14      10.94
F       3.49      18.15      10.10
F       2.62      17.77      12.07
F       0.11      18.47      11.42
F       1.10      19.31       9.67
F      -0.63      17.98       9.42
C       1.42      16.93      10.13
C       1.69      16.36       8.70
C       2.15      15.03       8.62
C       2.07      14.32       7.43
C       1.56      14.92       6.26
C       1.24      16.27       6.32
C       1.28      16.99       7.52
C       2.58      12.91       7.37
