16

C       6.58       1.80      10.00
C       5.89       1.77      11.22
C       7.97       1.81       9.99
O      10.75       1.84      10.04
C       6.61       1.75      12.43
C       8.69       1.79      11.19
C       8.00       1.76      12.41
C      10.19       1.80      11.18
O       3.83       1.77      12.39
O       3.81       1.75      10.12
O      10.77       1.76      12.31
C       4.40       1.76      11.25
H       6.02       1.80       9.08
H       8.52       1.82       9.04
H       6.06       1.72      13.37
H       8.57       1.73      13.34
