24

C       8.02       9.14       9.17
C       7.94       9.08      10.56
C       6.68       9.12      11.19
C       5.72       9.28       8.98
H       3.13       9.76      17.31
H       3.28       9.79      14.80
H       7.31       8.26      15.22
H       6.98       8.34      17.69
H       7.53       8.88      13.16
H       4.54       9.25      10.76
H       4.50       9.35      12.82
H       8.97       9.10       8.65
H       8.86       9.00      11.14
H       4.86       9.36       8.31
N       6.93       9.23       8.39
N       5.05       9.08      17.59
C       4.04       9.44      16.80
C       4.13       9.45      15.41
C       5.33       9.06      14.79
C       6.37       8.62      15.63
C       6.19       8.65      17.01
C       6.58       9.03      12.64
C       5.55       9.22      10.35
C       5.44       9.14      13.34
