16

O       9.02       9.15       6.10
H      13.76       9.19       7.06
H      11.25       9.16       7.09
H      13.71       9.27       2.77
O      15.96       9.24       6.02
O      15.94       9.21       3.75
C      13.19       9.19       6.13
C      13.88       9.22       4.91
C      11.80       9.18       6.15
H      11.20       9.25       2.80
O       9.01       9.23       3.83
C      13.16       9.24       3.71
C      11.08       9.20       4.95
C      11.77       9.23       3.73
C       9.58       9.19       4.96
C      15.37       9.23       4.89
