1020

H       0.28       4.64      11.66
H       1.89       4.04      13.34
H       3.33       3.07      15.07
H       4.49       1.79      16.74
H       1.62      41.74      16.39
H      29.88       1.02      12.32
H      30.18       1.56      16.33
H      27.40      41.48      16.97
H      28.55      40.11      15.37
H       1.78      42.13      12.24
H      29.90      39.09      13.62
H      31.41      38.44      11.86
H      16.12      38.69      31.67
H      17.73      39.29      29.99
H      19.16      40.27      28.26
H      20.32      41.55      26.60
H      17.46       1.59      26.95
H      14.05      42.32      31.02
H      14.34      41.77      27.01
H      11.56       1.86      26.38
H      12.71       3.22      27.98
H      17.62       1.21      31.10
H      14.06       4.25      29.73
H      15.57       4.89      31.48
H       8.20      31.67       4.65
H       9.81      29.99       4.04
H      11.24      28.26       3.07
H      12.40      26.60       1.79
H       9.54      26.95      41.74
H       6.13      31.02       1.02
H       6.41      27.01       1.56
H       3.64      26.38      41.47
H       4.80      27.98      40.10
H       9.70      31.11      42.13
H       6.15      29.73      39.08
H       7.66      31.48      38.44
H      24.04      11.67      38.69
H      25.65      13.34      39.29
H      27.08      15.07      40.27
H      28.24      16.74      41.55
H      25.38      16.39       1.59
H      21.96      12.32      42.32
H      22.25      16.33      41.77
H      19.48      16.96       1.85
H      20.63      15.37       3.22
H      25.54      12.23       1.21
H      21.98      13.61       4.25
H      23.48      11.86       4.89
H      30.01       3.79       7.03
H      27.25       7.05       9.26
H      28.32       5.38      10.56
H      26.52      10.57       7.16
H      27.06       8.62       3.45
H      27.80       6.66       4.64
H      31.04       3.45       9.33
H      26.26      11.81       5.09
H      14.20      39.53      36.31
H      11.40      36.30      34.09
H      12.47      37.97      32.79
H      10.66      32.78      36.19
H      11.27      34.71      39.90
H      12.01      36.67      38.71
H      15.21      39.88      34.01
H      10.46      31.52      38.27
H       6.27      36.30       3.80
H       3.49      34.08       7.05
H       4.56      32.78       5.37
H       2.76      36.18      10.57
H       3.31      39.89       8.62
H       4.05      38.70       6.66
H       7.29      34.01       3.45
H       2.51      38.25      11.82
H      22.10       7.03      39.55
H      19.34       9.25      36.28
H      20.40      10.56      37.96
H      18.60       7.15      32.76
H      19.15       3.45      34.72
H      19.89       4.64      36.67
H      23.13       9.33      39.89
H      18.36       5.08      31.52
H      20.04       0.67      21.84
H      24.22       1.84      23.93
H      22.33       1.40      25.31
H      27.63       1.06      21.51
H      25.29       1.15      18.00
H      23.35       1.54      19.34
H      19.53      42.68      24.15
H      28.19      42.83      19.31
H       4.21      42.69      21.49
H       8.39      41.49      19.41
H       6.49      41.93      18.03
H      11.79      42.27      21.83
H       9.45      42.19      25.34
H       7.51      41.81      24.00
H       3.70       0.66      19.18
H      12.35       0.51      24.04
H      27.96      21.50       0.67
H       0.47      19.41       1.83
H      30.25      18.03       1.39
H       3.87      21.83       1.03
H       1.52      25.34       1.18
H      31.27      24.00       1.56
H      27.45      19.19      42.68
H       4.42      24.04      42.82
H      12.12      21.84      42.67
H      16.31      23.93      41.50
H      14.41      25.31      41.94
H      19.71      21.51      42.28
H      17.37      18.00      42.17
H      15.43      19.34      41.79
H      11.62      24.15       0.66
H      20.27      19.30       0.51
H       0.28       4.64      25.66
H       1.89       4.04      27.34
H       3.33       3.07      29.07
H       4.49       1.79      30.74
H       1.62      41.74      30.39
H      29.88       1.02      26.32
H      30.18       1.56      30.33
H      27.40      41.48      30.97
H      28.55      40.11      29.37
H       1.78      42.13      26.24
H      29.90      39.09      27.62
H      31.41      38.44      25.86
H      16.12      38.69       2.62
H      17.73      39.29       0.94
H      19.16      40.27      42.26
H      20.32      41.55      40.60
H      17.46       1.59      40.95
H      14.05      42.32       1.97
H      14.34      41.77      41.01
H      11.56       1.86      40.38
H      12.71       3.22      41.98
H      17.62       1.21       2.05
H      14.06       4.25       0.68
H      15.57       4.89       2.43
H       8.20      31.67      18.65
H       9.81      29.99      18.04
H      11.24      28.26      17.07
H      12.40      26.60      15.79
H       9.54      26.95      12.69
H       6.13      31.02      15.02
H       6.41      27.01      15.56
H       3.64      26.38      12.42
H       4.80      27.98      11.06
H       9.70      31.11      13.08
H       6.15      29.73      10.03
H       7.66      31.48       9.40
H      24.04      11.67       9.64
H      25.65      13.34      10.24
H      27.08      15.07      11.22
H      28.24      16.74      12.50
H      25.38      16.39      15.59
H      21.96      12.32      13.27
H      22.25      16.33      12.72
H      19.48      16.96      15.85
H      20.63      15.37      17.22
H      25.54      12.23      15.21
H      21.98      13.61      18.25
H      23.48      11.86      18.89
H      30.01       3.79      21.03
H      27.25       7.05      23.26
H      28.32       5.38      24.56
H      26.52      10.57      21.16
H      27.06       8.62      17.45
H      27.80       6.66      18.64
H      31.04       3.45      23.33
H      26.26      11.81      19.09
H      14.20      39.53       7.26
H      11.40      36.30       5.04
H      12.47      37.97       3.74
H      10.66      32.78       7.14
H      11.27      34.71      10.85
H      12.01      36.67       9.66
H      15.21      39.88       4.96
H      10.46      31.52       9.22
H       6.27      36.30      17.80
H       3.49      34.08      21.05
H       4.56      32.78      19.37
H       2.76      36.18      24.57
H       3.31      39.89      22.62
H       4.05      38.70      20.66
H       7.29      34.01      17.45
H       2.51      38.25      25.82
H      22.10       7.03      10.50
H      19.34       9.25       7.23
H      20.40      10.56       8.91
H      18.60       7.15       3.71
H      19.15       3.45       5.67
H      19.89       4.64       7.62
H      23.13       9.33      10.84
H      18.36       5.08       2.47
H      20.04       0.67      35.84
H      24.22       1.84      37.93
H      22.33       1.40      39.31
H      27.63       1.06      35.51
H      25.29       1.15      32.00
H      23.35       1.54      33.34
H      19.53      42.68      38.15
H      28.19      42.83      33.31
H       4.21      42.69      35.49
H       8.39      41.49      33.41
H       6.49      41.93      32.03
H      11.79      42.27      35.83
H       9.45      42.19      39.34
H       7.51      41.81      38.00
H       3.70       0.66      33.18
H      12.35       0.51      38.04
H      27.96      21.50      14.67
H       0.47      19.41      15.83
H      30.25      18.03      15.39
H       3.87      21.83      15.03
H       1.52      25.34      15.18
H      31.27      24.00      15.56
H      27.45      19.19      13.63
H       4.42      24.04      13.77
H      12.12      21.84      13.62
H      16.31      23.93      12.45
H      14.41      25.31      12.89
H      19.71      21.51      13.23
H      17.37      18.00      13.12
H      15.43      19.34      12.74
H      11.62      24.15      14.66
H      20.27      19.30      14.51
H       0.28       4.64      39.66
H       1.89       4.04      41.34
H       3.33       3.07       0.02
H       4.49       1.79       1.69
H       1.62      41.74       1.34
H      29.88       1.02      40.32
H      30.18       1.56       1.28
H      27.40      41.48       1.92
H      28.55      40.11       0.32
H       1.78      42.13      40.24
H      29.90      39.09      41.62
H      31.41      38.44      39.86
H      16.12      38.69      16.62
H      17.73      39.29      14.94
H      19.16      40.27      13.21
H      20.32      41.55      11.55
H      17.46       1.59      11.90
H      14.05      42.32      15.97
H      14.34      41.77      11.96
H      11.56       1.86      11.33
H      12.71       3.22      12.93
H      17.62       1.21      16.05
H      14.06       4.25      14.68
H      15.57       4.89      16.43
H       8.20      31.67      32.65
H       9.81      29.99      32.04
H      11.24      28.26      31.07
H      12.40      26.60      29.79
H       9.54      26.95      26.69
H       6.13      31.02      29.02
H       6.41      27.01      29.56
H       3.64      26.38      26.42
H       4.80      27.98      25.06
H       9.70      31.11      27.08
H       6.15      29.73      24.03
H       7.66      31.48      23.40
H      24.04      11.67      23.64
H      25.65      13.34      24.24
H      27.08      15.07      25.22
H      28.24      16.74      26.50
H      25.38      16.39      29.59
H      21.96      12.32      27.27
H      22.25      16.33      26.72
H      19.48      16.96      29.85
H      20.63      15.37      31.22
H      25.54      12.23      29.21
H      21.98      13.61      32.25
H      23.48      11.86      32.89
H      30.01       3.79      35.03
H      27.25       7.05      37.26
H      28.32       5.38      38.56
H      26.52      10.57      35.16
H      27.06       8.62      31.45
H      27.80       6.66      32.64
H      31.04       3.45      37.33
H      26.26      11.81      33.09
H      14.20      39.53      21.26
H      11.40      36.30      19.04
H      12.47      37.97      17.74
H      10.66      32.78      21.14
H      11.27      34.71      24.85
H      12.01      36.67      23.66
H      15.21      39.88      18.96
H      10.46      31.52      23.22
H       6.27      36.30      31.80
H       3.49      34.08      35.05
H       4.56      32.78      33.37
H       2.76      36.18      38.57
H       3.31      39.89      36.62
H       4.05      38.70      34.66
H       7.29      34.01      31.45
H       2.51      38.25      39.82
H      22.10       7.03      24.50
H      19.34       9.25      21.23
H      20.40      10.56      22.91
H      18.60       7.15      17.71
H      19.15       3.45      19.67
H      19.89       4.64      21.62
H      23.13       9.33      24.84
H      18.36       5.08      16.47
H      20.04       0.67       6.79
H      24.22       1.84       8.88
H      22.33       1.40      10.26
H      27.63       1.06       6.47
H      25.29       1.15       2.95
H      23.35       1.54       4.29
H      19.53      42.68       9.10
H      28.19      42.83       4.26
H       4.21      42.69       6.45
H       8.39      41.49       4.36
H       6.49      41.93       2.98
H      11.79      42.27       6.78
H       9.45      42.19      10.29
H       7.51      41.81       8.95
H       3.70       0.66       4.13
H      12.35       0.51       8.99
H      27.96      21.50      28.67
H       0.47      19.41      29.83
H      30.25      18.03      29.39
H       3.87      21.83      29.03
H       1.52      25.34      29.18
H      31.27      24.00      29.56
H      27.45      19.19      27.63
H       4.42      24.04      27.77
H      12.12      21.84      27.62
H      16.31      23.93      26.45
H      14.41      25.31      26.89
H      19.71      21.51      27.23
H      17.37      18.00      27.12
H      15.43      19.34      26.74
H      11.62      24.15      28.66
H      20.27      19.30      28.51
C       0.15      41.86      13.57
C      30.82      40.97      13.95
C      30.04      41.56      14.94
C      30.53      42.85      15.21
C      29.85       0.61      16.15
C      28.71       0.10      16.83
C      28.25      41.85      16.52
C      28.91      41.04      15.59
C      30.65      39.72      13.34
C      31.54      39.35      12.32
C       0.91      40.21      11.92
C       1.05      41.48      12.53
C      31.61       1.29      13.51
C       0.99       2.18      13.79
C       1.79       1.63      14.78
C       1.28       0.38      15.15
C       2.96       2.16      15.36
C       3.63       1.41      16.33
C       3.14       0.15      16.74
C       1.97      42.67      16.13
C      30.66       1.65      12.52
C      30.80       2.86      11.81
C       0.19       3.74      12.14
C       1.13       3.40      13.12
C       0.05       0.07      14.36
C      15.99       1.47      29.77
C      14.98       2.36      29.39
C      14.20       1.78      28.40
C      14.69       0.49      28.14
C      14.01      42.73      27.19
C      12.87       0.18      26.52
C      12.40       1.49      26.82
C      13.07       2.29      27.76
C      14.82       3.62      30.00
C      15.70       3.98      31.02
C      16.75       3.12      31.42
C      16.89       1.85      30.81
C      15.78      42.04      29.83
C      16.83      41.16      29.54
C      17.63      41.70      28.56
C      17.12      42.96      28.19
C      18.79      41.18      27.98
C      19.46      41.93      27.00
C      18.97       0.14      26.59
C      17.81       0.67      27.21
C      14.82      41.69      30.82
C      14.97      40.47      31.53
C      16.03      39.59      31.20
C      16.97      39.93      30.21
C      15.89       0.21      28.98
C       8.07      29.77      41.86
C       7.06      29.39      40.97
C       6.29      28.40      41.56
C       6.77      28.14      42.84
C       6.09      27.20       0.61
C       4.95      26.52       0.10
C       4.49      26.83      41.84
C       5.16      27.76      41.04
C       6.91      30.00      39.72
C       7.79      31.03      39.35
C       8.84      31.43      40.21
C       8.97      30.81      41.49
C       7.86      29.83       1.29
C       8.91      29.55       2.18
C       9.71      28.56       1.63
C       9.20      28.19       0.38
C      10.87      27.98       2.16
C      11.54      27.00       1.41
C      11.05      26.59       0.14
C       9.89      27.21      42.67
C       6.91      30.82       1.65
C       7.05      31.53       2.87
C       8.11      31.20       3.74
C       9.05      30.21       3.40
C       7.97      28.98       0.07
C      23.91      13.57       1.47
C      22.90      13.95       2.36
C      22.12      14.94       1.77
C      22.61      15.20       0.49
C      21.93      16.14      42.72
C      20.79      16.82       0.18
C      20.32      16.52       1.48
C      20.99      15.58       2.29
C      22.73      13.34       3.61
C      23.62      12.32       3.98
C      24.67      11.92       3.12
C      24.80      12.53       1.85
C      23.70      13.51      42.04
C      24.75      13.79      41.16
C      25.55      14.78      41.70
C      25.04      15.15      42.96
C      26.71      15.36      41.17
C      27.38      16.33      41.93
C      26.89      16.75       0.14
C      25.73      16.13       0.67
C      22.74      12.52      41.69
C      22.88      11.81      40.47
C      23.95      12.14      39.59
C      24.89      13.12      39.93
C      23.81      14.36       0.21
C      26.73       9.82       5.17
C      27.10       8.64       4.47
C      27.53       7.50       5.17
C      27.57       7.50       6.59
C      26.79       9.77       6.58
C      28.02       6.40       7.38
C      27.80       6.34       8.77
C      28.42       5.33       9.54
C      29.25       4.36       8.94
C      29.39       4.43       7.53
C      26.22      10.96       4.57
C      30.12       3.58       9.69
C      10.90      33.52      38.18
C      11.29      34.69      38.88
C      11.72      35.84      38.18
C      11.73      35.84      36.76
C      10.94      33.57      36.77
C      12.19      36.94      35.97
C      11.96      37.01      34.57
C      12.57      38.01      33.80
C      13.42      38.97      34.40
C      13.57      38.90      35.81
C      10.41      32.37      38.79
C      14.29      39.75      33.64
C       2.97      38.17       9.82
C       3.35      38.87       8.65
C       3.78      38.17       7.50
C       3.81      36.75       7.50
C       3.04      36.76       9.77
C       4.27      35.96       6.40
C       4.04      34.56       6.34
C       4.66      33.80       5.33
C       5.50      34.40       4.37
C       5.64      35.81       4.44
C       2.46      38.77      10.96
C       6.37      33.64       3.59
C      18.82       5.16      33.52
C      19.19       4.47      34.69
C      19.62       5.17      35.84
C      19.65       6.58      35.84
C      18.88       6.58      33.56
C      20.10       7.38      36.94
C      19.88       8.77      37.00
C      20.50       9.54      38.00
C      21.34       8.93      38.97
C      21.47       7.53      38.90
C      18.31       4.56      32.37
C      22.21       9.69      39.75
C      26.68       1.13      19.61
C      25.41       1.29      19.01
C      24.26       1.49      19.80
C      24.37       1.53      21.21
C      26.75       1.23      21.02
C      23.23       1.51      22.08
C      23.32       1.64      23.48
C      22.20       1.40      24.30
C      20.95       1.04      23.73
C      20.89       0.98      22.32
C      27.74       0.57      18.90
C      19.94       0.47      24.49
C      10.85      42.21      23.74
C       9.57      42.05      24.33
C       8.42      41.84      23.54
C       8.53      41.81      22.13
C      10.91      42.11      22.33
C       7.39      41.83      21.26
C       7.49      41.69      19.86
C       6.36      41.93      19.04
C       5.12      42.30      19.61
C       5.06      42.38      21.02
C      11.90      42.77      24.44
C       4.11      42.87      18.84
C       2.92      23.74       1.12
C       1.65      24.33       1.30
C       0.50      23.54       1.50
C       0.61      22.13       1.53
C       2.99      22.33       1.21
C      31.15      21.26       1.51
C      31.25      19.86       1.64
C      30.12      19.04       1.39
C      28.88      19.61       1.03
C      28.81      21.02       0.97
C       3.98      24.45       0.56
C      27.87      18.84       0.47
C      18.76      19.60      42.20
C      17.49      19.01      42.04
C      16.34      19.80      41.83
C      16.45      21.21      41.80
C      18.83      21.01      42.11
C      15.31      22.07      41.82
C      15.41      23.48      41.69
C      14.28      24.29      41.94
C      13.04      23.73      42.30
C      12.97      22.32      42.36
C      19.82      18.89      42.76
C      12.03      24.50      42.86
C       0.15      41.86      27.57
C      30.82      40.97      27.95
C      30.04      41.56      28.94
C      30.53      42.85      29.21
C      29.85       0.61      30.15
C      28.71       0.10      30.83
C      28.25      41.85      30.52
C      28.91      41.04      29.59
C      30.65      39.72      27.34
C      31.54      39.35      26.32
C       0.91      40.21      25.92
C       1.05      41.48      26.53
C      31.61       1.29      27.51
C       0.99       2.18      27.79
C       1.79       1.63      28.78
C       1.28       0.38      29.15
C       2.96       2.16      29.36
C       3.63       1.41      30.33
C       3.14       0.15      30.74
C       1.97      42.67      30.13
C      30.66       1.65      26.52
C      30.80       2.86      25.81
C       0.19       3.74      26.14
C       1.13       3.40      27.12
C       0.05       0.07      28.36
C      15.99       1.47       0.72
C      14.98       2.36       0.34
C      14.20       1.78      42.40
C      14.69       0.49      42.14
C      14.01      42.73      41.19
C      12.87       0.18      40.52
C      12.40       1.49      40.82
C      13.07       2.29      41.76
C      14.82       3.62       0.95
C      15.70       3.98       1.97
C      16.75       3.12       2.37
C      16.89       1.85       1.76
C      15.78      42.04       0.78
C      16.83      41.16       0.49
C      17.63      41.70      42.56
C      17.12      42.96      42.19
C      18.79      41.18      41.98
C      19.46      41.93      41.00
C      18.97       0.14      40.59
C      17.81       0.67      41.21
C      14.82      41.69       1.77
C      14.97      40.47       2.48
C      16.03      39.59       2.15
C      16.97      39.93       1.16
C      15.89       0.21      42.98
C       8.07      29.77      12.81
C       7.06      29.39      11.92
C       6.29      28.40      12.51
C       6.77      28.14      13.79
C       6.09      27.20      14.61
C       4.95      26.52      14.10
C       4.49      26.83      12.79
C       5.16      27.76      11.99
C       6.91      30.00      10.67
C       7.79      31.03      10.30
C       8.84      31.43      11.17
C       8.97      30.81      12.44
C       7.86      29.83      15.29
C       8.91      29.55      16.18
C       9.71      28.56      15.63
C       9.20      28.19      14.38
C      10.87      27.98      16.16
C      11.54      27.00      15.41
C      11.05      26.59      14.14
C       9.89      27.21      13.62
C       6.91      30.82      15.65
C       7.05      31.53      16.87
C       8.11      31.20      17.74
C       9.05      30.21      17.40
C       7.97      28.98      14.07
C      23.91      13.57      15.47
C      22.90      13.95      16.36
C      22.12      14.94      15.77
C      22.61      15.20      14.49
C      21.93      16.14      13.67
C      20.79      16.82      14.18
C      20.32      16.52      15.48
C      20.99      15.58      16.29
C      22.73      13.34      17.61
C      23.62      12.32      17.98
C      24.67      11.92      17.12
C      24.80      12.53      15.85
C      23.70      13.51      12.99
C      24.75      13.79      12.11
C      25.55      14.78      12.65
C      25.04      15.15      13.91
C      26.71      15.36      12.12
C      27.38      16.33      12.88
C      26.89      16.75      14.14
C      25.73      16.13      14.67
C      22.74      12.52      12.64
C      22.88      11.81      11.42
C      23.95      12.14      10.54
C      24.89      13.12      10.88
C      23.81      14.36      14.21
C      26.73       9.82      19.17
C      27.10       8.64      18.47
C      27.53       7.50      19.17
C      27.57       7.50      20.59
C      26.79       9.77      20.58
C      28.02       6.40      21.38
C      27.80       6.34      22.77
C      28.42       5.33      23.54
C      29.25       4.36      22.94
C      29.39       4.43      21.53
C      26.22      10.96      18.57
C      30.12       3.58      23.69
C      10.90      33.52       9.13
C      11.29      34.69       9.83
C      11.72      35.84       9.13
C      11.73      35.84       7.71
C      10.94      33.57       7.72
C      12.19      36.94       6.92
C      11.96      37.01       5.52
C      12.57      38.01       4.75
C      13.42      38.97       5.36
C      13.57      38.90       6.76
C      10.41      32.37       9.74
C      14.29      39.75       4.60
C       2.97      38.17      23.82
C       3.35      38.87      22.65
C       3.78      38.17      21.50
C       3.81      36.75      21.50
C       3.04      36.76      23.77
C       4.27      35.96      20.40
C       4.04      34.56      20.34
C       4.66      33.80      19.33
C       5.50      34.40      18.37
C       5.64      35.81      18.44
C       2.46      38.77      24.96
C       6.37      33.64      17.59
C      18.82       5.16       4.47
C      19.19       4.47       5.64
C      19.62       5.17       6.79
C      19.65       6.58       6.79
C      18.88       6.58       4.51
C      20.10       7.38       7.89
C      19.88       8.77       7.95
C      20.50       9.54       8.95
C      21.34       8.93       9.92
C      21.47       7.53       9.86
C      18.31       4.56       3.32
C      22.21       9.69      10.70
C      26.68       1.13      33.61
C      25.41       1.29      33.01
C      24.26       1.49      33.80
C      24.37       1.53      35.21
C      26.75       1.23      35.02
C      23.23       1.51      36.08
C      23.32       1.64      37.48
C      22.20       1.40      38.30
C      20.95       1.04      37.73
C      20.89       0.98      36.32
C      27.74       0.57      32.90
C      19.94       0.47      38.49
C      10.85      42.21      37.74
C       9.57      42.05      38.33
C       8.42      41.84      37.54
C       8.53      41.81      36.13
C      10.91      42.11      36.33
C       7.39      41.83      35.26
C       7.49      41.69      33.86
C       6.36      41.93      33.04
C       5.12      42.30      33.61
C       5.06      42.38      35.02
C      11.90      42.77      38.44
C       4.11      42.87      32.84
C       2.92      23.74      15.12
C       1.65      24.33      15.30
C       0.50      23.54      15.50
C       0.61      22.13      15.53
C       2.99      22.33      15.21
C      31.15      21.26      15.51
C      31.25      19.86      15.64
C      30.12      19.04      15.39
C      28.88      19.61      15.03
C      28.81      21.02      14.97
C       3.98      24.45      14.56
C      27.87      18.84      14.47
C      18.76      19.60      13.15
C      17.49      19.01      12.99
C      16.34      19.80      12.78
C      16.45      21.21      12.75
C      18.83      21.01      13.06
C      15.31      22.07      12.77
C      15.41      23.48      12.64
C      14.28      24.29      12.89
C      13.04      23.73      13.25
C      12.97      22.32      13.31
C      19.82      18.89      13.71
C      12.03      24.50      13.81
C       0.15      41.86      41.57
C      30.82      40.97      41.95
C      30.04      41.56      42.94
C      30.53      42.85       0.16
C      29.85       0.61       1.10
C      28.71       0.10       1.78
C      28.25      41.85       1.47
C      28.91      41.04       0.54
C      30.65      39.72      41.34
C      31.54      39.35      40.32
C       0.91      40.21      39.92
C       1.05      41.48      40.53
C      31.61       1.29      41.51
C       0.99       2.18      41.79
C       1.79       1.63      42.78
C       1.28       0.38       0.10
C       2.96       2.16       0.31
C       3.63       1.41       1.28
C       3.14       0.15       1.70
C       1.97      42.67       1.08
C      30.66       1.65      40.52
C      30.80       2.86      39.81
C       0.19       3.74      40.14
C       1.13       3.40      41.12
C       0.05       0.07      42.36
C      15.99       1.47      14.72
C      14.98       2.36      14.34
C      14.20       1.78      13.35
C      14.69       0.49      13.09
C      14.01      42.73      12.14
C      12.87       0.18      11.47
C      12.40       1.49      11.77
C      13.07       2.29      12.71
C      14.82       3.62      14.95
C      15.70       3.98      15.97
C      16.75       3.12      16.37
C      16.89       1.85      15.76
C      15.78      42.04      14.78
C      16.83      41.16      14.49
C      17.63      41.70      13.51
C      17.12      42.96      13.14
C      18.79      41.18      12.93
C      19.46      41.93      11.95
C      18.97       0.14      11.54
C      17.81       0.67      12.16
C      14.82      41.69      15.77
C      14.97      40.47      16.48
C      16.03      39.59      16.15
C      16.97      39.93      15.16
C      15.89       0.21      13.93
C       8.07      29.77      26.81
C       7.06      29.39      25.92
C       6.29      28.40      26.51
C       6.77      28.14      27.79
C       6.09      27.20      28.61
C       4.95      26.52      28.10
C       4.49      26.83      26.79
C       5.16      27.76      25.99
C       6.91      30.00      24.67
C       7.79      31.03      24.30
C       8.84      31.43      25.17
C       8.97      30.81      26.44
C       7.86      29.83      29.29
C       8.91      29.55      30.18
C       9.71      28.56      29.63
C       9.20      28.19      28.38
C      10.87      27.98      30.16
C      11.54      27.00      29.41
C      11.05      26.59      28.14
C       9.89      27.21      27.62
C       6.91      30.82      29.65
C       7.05      31.53      30.87
C       8.11      31.20      31.74
C       9.05      30.21      31.40
C       7.97      28.98      28.07
C      23.91      13.57      29.47
C      22.90      13.95      30.36
C      22.12      14.94      29.77
C      22.61      15.20      28.49
C      21.93      16.14      27.67
C      20.79      16.82      28.18
C      20.32      16.52      29.48
C      20.99      15.58      30.29
C      22.73      13.34      31.61
C      23.62      12.32      31.98
C      24.67      11.92      31.12
C      24.80      12.53      29.85
C      23.70      13.51      26.99
C      24.75      13.79      26.11
C      25.55      14.78      26.65
C      25.04      15.15      27.91
C      26.71      15.36      26.12
C      27.38      16.33      26.88
C      26.89      16.75      28.14
C      25.73      16.13      28.67
C      22.74      12.52      26.64
C      22.88      11.81      25.42
C      23.95      12.14      24.54
C      24.89      13.12      24.88
C      23.81      14.36      28.21
C      26.73       9.82      33.17
C      27.10       8.64      32.47
C      27.53       7.50      33.17
C      27.57       7.50      34.59
C      26.79       9.77      34.58
C      28.02       6.40      35.38
C      27.80       6.34      36.77
C      28.42       5.33      37.54
C      29.25       4.36      36.94
C      29.39       4.43      35.53
C      26.22      10.96      32.57
C      30.12       3.58      37.69
C      10.90      33.52      23.13
C      11.29      34.69      23.83
C      11.72      35.84      23.13
C      11.73      35.84      21.71
C      10.94      33.57      21.72
C      12.19      36.94      20.92
C      11.96      37.01      19.52
C      12.57      38.01      18.75
C      13.42      38.97      19.36
C      13.57      38.90      20.76
C      10.41      32.37      23.74
C      14.29      39.75      18.60
C       2.97      38.17      37.82
C       3.35      38.87      36.65
C       3.78      38.17      35.50
C       3.81      36.75      35.50
C       3.04      36.76      37.77
C       4.27      35.96      34.40
C       4.04      34.56      34.34
C       4.66      33.80      33.33
C       5.50      34.40      32.37
C       5.64      35.81      32.44
C       2.46      38.77      38.96
C       6.37      33.64      31.59
C      18.82       5.16      18.47
C      19.19       4.47      19.64
C      19.62       5.17      20.79
C      19.65       6.58      20.79
C      18.88       6.58      18.51
C      20.10       7.38      21.89
C      19.88       8.77      21.95
C      20.50       9.54      22.95
C      21.34       8.93      23.92
C      21.47       7.53      23.86
C      18.31       4.56      17.32
C      22.21       9.69      24.70
C      26.68       1.13       4.56
C      25.41       1.29       3.96
C      24.26       1.49       4.75
C      24.37       1.53       6.16
C      26.75       1.23       5.97
C      23.23       1.51       7.03
C      23.32       1.64       8.43
C      22.20       1.40       9.25
C      20.95       1.04       8.68
C      20.89       0.98       7.27
C      27.74       0.57       3.85
C      19.94       0.47       9.45
C      10.85      42.21       8.69
C       9.57      42.05       9.28
C       8.42      41.84       8.49
C       8.53      41.81       7.08
C      10.91      42.11       7.28
C       7.39      41.83       6.22
C       7.49      41.69       4.81
C       6.36      41.93       3.99
C       5.12      42.30       4.56
C       5.06      42.38       5.97
C      11.90      42.77       9.39
C       4.11      42.87       3.79
C       2.92      23.74      29.12
C       1.65      24.33      29.30
C       0.50      23.54      29.50
C       0.61      22.13      29.53
C       2.99      22.33      29.21
C      31.15      21.26      29.51
C      31.25      19.86      29.64
C      30.12      19.04      29.39
C      28.88      19.61      29.03
C      28.81      21.02      28.97
C       3.98      24.45      28.56
C      27.87      18.84      28.47
C      18.76      19.60      27.15
C      17.49      19.01      26.99
C      16.34      19.80      26.78
C      16.45      21.21      26.75
C      18.83      21.01      27.06
C      15.31      22.07      26.77
C      15.41      23.48      26.64
C      14.28      24.29      26.89
C      13.04      23.73      27.25
C      12.97      22.32      27.31
C      19.82      18.89      27.71
C      12.03      24.50      27.81
N       3.87      42.51      17.62
N       1.69      39.80      10.91
N      27.95       0.83      17.65
N      29.90       3.30      10.93
N      19.71       0.83      25.71
N      17.53       3.54      32.43
N      12.11      42.51      25.69
N      14.07      40.03      32.41
N      11.79      25.71      42.51
N       9.61      32.43      39.80
N       4.19      25.70       0.82
N       6.15      32.41       3.31
N      27.63      17.62       0.82
N      25.44      10.91       3.54
N      20.03      17.65      42.50
N      21.99      10.93      40.03
N      27.20       8.64       7.21
N      28.80       5.43       6.82
N      11.34      34.70      36.13
N      12.98      37.90      36.52
N       3.44      36.12       8.65
N       5.05      36.51       5.44
N      19.28       7.21      34.69
N      20.88       6.82      37.91
N      25.62       1.40      21.74
N      22.00       1.19      21.57
N       9.78      41.94      21.60
N       6.17      42.16      21.77
N       1.86      21.60       1.38
N      29.92      21.77       1.19
N      17.70      21.74      41.94
N      14.08      21.57      42.15
N       3.87      42.51      31.62
N       1.69      39.80      24.91
N      27.95       0.83      31.65
N      29.90       3.30      24.93
N      19.71       0.83      39.71
N      17.53       3.54       3.38
N      12.11      42.51      39.69
N      14.07      40.03       3.36
N      11.79      25.71      13.46
N       9.61      32.43      10.75
N       4.19      25.70      14.82
N       6.15      32.41      17.31
N      27.63      17.62      14.82
N      25.44      10.91      17.54
N      20.03      17.65      13.45
N      21.99      10.93      10.98
N      27.20       8.64      21.21
N      28.80       5.43      20.82
N      11.34      34.70       7.08
N      12.98      37.90       7.47
N       3.44      36.12      22.65
N       5.05      36.51      19.44
N      19.28       7.21       5.64
N      20.88       6.82       8.86
N      25.62       1.40      35.74
N      22.00       1.19      35.57
N       9.78      41.94      35.60
N       6.17      42.16      35.77
N       1.86      21.60      15.38
N      29.92      21.77      15.19
N      17.70      21.74      12.89
N      14.08      21.57      13.10
N       3.87      42.51       2.57
N       1.69      39.80      38.91
N      27.95       0.83       2.60
N      29.90       3.30      38.93
N      19.71       0.83      10.66
N      17.53       3.54      17.38
N      12.11      42.51      10.64
N      14.07      40.03      17.36
N      11.79      25.71      27.46
N       9.61      32.43      24.75
N       4.19      25.70      28.82
N       6.15      32.41      31.31
N      27.63      17.62      28.82
N      25.44      10.91      31.54
N      20.03      17.65      27.45
N      21.99      10.93      24.98
N      27.20       8.64      35.21
N      28.80       5.43      34.82
N      11.34      34.70      21.08
N      12.98      37.90      21.47
N       3.44      36.12      36.65
N       5.05      36.51      33.44
N      19.28       7.21      19.64
N      20.88       6.82      22.86
N      25.62       1.40       6.69
N      22.00       1.19       6.52
N       9.78      41.94       6.55
N       6.17      42.16       6.72
N       1.86      21.60      29.38
N      29.92      21.77      29.19
N      17.70      21.74      26.89
N      14.08      21.57      27.10
