18

Ni       2.39       8.50       4.19
Ni       0.12       7.05       5.27
Ni       4.64       6.83       3.47
C       0.45       7.20       2.25
O       1.11       8.72       5.77
O      -1.16       5.56       4.68
O       3.36       8.10       2.48
O       3.78       9.77       4.88
C       0.52       9.91       6.08
O      -1.41       8.20       4.75
O       1.51       5.79       6.00
O       3.12       6.71       4.74
C      -1.74       4.70       5.55
O       6.03       6.84       2.03
O       0.87       7.46       3.45
C       2.78       7.77       1.30
C       4.97       9.38       5.11
C       2.71       5.80       5.57
