18

N       0.77      12.49       4.44
N      -0.26      11.62       4.49
N      -1.30      12.18       3.94
N      -0.99      13.42       3.52
H       2.84      17.88       2.49
H       1.06      17.16       1.26
H      -0.15      15.30       1.92
H       2.51      14.66       4.86
O       4.90      15.94       4.97
O       4.33      18.02       4.63
C       4.10      16.77       4.50
C       2.87      16.32       3.77
C       2.41      17.09       2.71
C       1.33      16.68       2.01
C       0.62      15.55       2.39
C       1.05      14.78       3.46
C       0.29      13.57       3.83
C       2.20      15.17       4.15
