18

C       2.20       4.78       3.64
C       1.48       5.41       2.47
C       1.73       5.01       1.18
C       1.05       5.53       0.14
N      -1.34       8.78       2.91
N      -2.50       9.45       2.72
O       1.76       4.95       4.82
N      -3.10       9.00       1.66
N      -2.38       8.00       1.15
O       3.21       4.08       3.46
C       0.00       6.45       0.38
H       1.26       5.28      -0.73
C      -0.28       6.89       1.68
C      -1.32       7.87       1.92
C       0.48       6.35       2.73
H      -0.50       6.77      -0.34
H       0.31       6.62       3.60
H       2.39       4.37       1.02
