18

C      10.18      11.71      17.60
C      10.90      11.07      18.77
C      10.65      11.47      20.07
C      11.33      10.96      21.11
C      12.38      10.04      20.87
C      12.66       9.60      19.57
C      13.70       8.61      19.32
C      11.90      10.14      18.52
H       9.99      12.12      20.23
H      11.12      11.21      21.98
H      12.88       9.71      21.58
H      12.07       9.87      17.64
N      13.72       7.71      18.33
N      14.88       7.04      18.53
N      15.48       7.49      19.58
N      14.76       8.49      20.10
O      10.62      11.54      16.43
O       9.17      12.41      17.79
