18

C       2.24      10.54      16.15
C       3.54      10.26      16.81
C       4.15       9.00      16.65
C       5.38       8.74      17.21
C       6.04       7.46      17.03
C       6.02       9.74      17.92
C       5.40      10.96      18.12
C       4.18      11.23      17.54
H       3.71       8.34      16.17
H       6.87       9.60      18.26
H       5.81      11.61      18.65
H       3.79      12.06      17.64
N       5.44       6.24      17.01
N       6.43       5.35      16.80
N       7.56       6.01      16.72
N       7.35       7.33      16.87
O       1.44       9.62      15.86
O       1.92      11.75      15.85
