18

O       1.29       7.69       5.66
O       1.86       9.77       5.99
N       7.18       5.18       7.10
C       2.09       8.52       6.13
C       3.32       8.08       6.85
N       7.49       3.94       6.68
C       3.78       8.85       7.91
C       4.86       8.44       8.61
C       5.57       7.30       8.23
C       5.14       6.54       7.16
C       5.90       5.33       6.79
C       3.99       6.93       6.47
H       3.35       9.64       8.14
H       5.13       8.92       9.36
H       6.34       7.06       8.70
H       3.68       6.42       5.76
N       6.45       3.38       6.13
N       5.42       4.25       6.19
