18

H       9.54      15.09      18.76
H      11.32      15.82      19.98
H      12.53      17.68      19.32
H       9.87      18.32      16.39
N      11.61      20.48      16.81
N      12.64      21.35      16.75
N      13.68      20.79      17.30
N      13.37      19.55      17.73
C       8.28      16.21      16.75
C       9.51      16.65      17.48
C       9.97      15.89      18.54
C      11.05      16.30      19.23
C      11.76      17.43      18.86
C      11.33      18.19      17.78
C      12.09      19.40      17.41
C      10.18      17.81      17.10
O       7.48      17.04      16.28
O       8.05      14.96      16.62
