20

H      14.20       7.10      16.89
H      13.76       9.30      17.86
H       8.85      11.45      20.41
H       9.29       9.26      19.44
C      12.17       5.15      16.70
C      12.27       6.54      17.28
C      13.38       7.36      17.25
C      13.13       8.62      17.81
C      11.83       8.74      18.30
C      10.87      13.40      20.60
C      10.77      12.02      20.02
C       9.67      11.20      20.05
C       9.92       9.94      19.49
C      11.22       9.82      18.99
S      10.94       7.28      18.01
S      12.10      11.28      19.29
O      11.09       4.54      16.94
O      13.07       4.70      16.00
O      11.95      14.02      20.36
O       9.97      13.86      21.30
