548

C      66.87      42.38      56.47
C      70.86      40.02      48.85
C      62.96      44.57      48.57
C      71.39      40.44      47.61
C      72.47      39.76      47.02
C      73.04      38.63      47.66
C      72.51      38.21      48.89
C      71.43      38.89      49.49
C      38.25      42.02       0.28
C      38.30      42.00       1.69
C      37.17      42.35       2.47
C      36.00      42.74       1.80
C      35.93      42.76       0.39
C      62.27      45.69      49.09
C      61.21      46.27      48.38
C      60.80      45.75      47.13
C      61.49      44.62      46.61
C      62.56      44.04      47.32
C      65.82      42.98      50.52
C      65.79      42.99      51.93
C      66.84      42.40      52.67
C      67.92      41.78      51.98
C      67.95      41.77      50.57
C      66.89      42.36      49.84
C      63.94      44.03      49.23
C      64.84      43.53      49.84
C      69.86      40.64      49.41
C      68.94      41.19      49.95
C      66.82      42.41      53.97
C      66.83      42.40      55.17
C      37.06      42.28      28.00
C     100.67      44.66      35.63
C      92.76      40.10      35.91
C     101.19      44.23      36.86
C     102.27      44.91      37.46
C     102.85      46.04      36.82
C     102.32      46.46      35.58
C     101.24      45.78      34.99
C      38.25      42.67      27.34
C      38.30      42.69      25.94
C      37.17      42.33      25.16
C      36.00      41.94      25.83
C      95.55      41.92      27.24
C      92.08      38.98      35.39
C      91.01      38.40      36.10
C      90.61      38.93      37.35
C      91.29      40.05      37.86
C      92.36      40.63      37.15
C      95.62      41.69      33.96
C      95.60      41.68      32.55
C      96.65      42.28      31.81
C      97.72      42.89      32.49
C      97.75      42.91      33.91
C      96.70      42.31      34.64
C      93.75      40.64      35.24
C      94.65      41.14      34.63
C      99.66      44.03      35.07
C      98.75      43.48      34.53
C      96.63      42.27      30.50
C      96.63      42.27      29.31
C      51.97      56.57      42.19
C      55.96      48.95      44.56
C      48.05      48.66      40.00
C      56.48      47.71      44.13
C      57.56      47.12      44.82
C      58.14      47.75      45.94
C      57.61      48.99      46.37
C      56.53      49.58      45.68
C      23.35       0.38      42.57
C      23.40       1.79      42.59
C      81.88       2.57      42.24
C      80.71       1.90      41.85
C      80.64       0.49      41.83
C      47.37      49.19      38.88
C      46.30      48.47      38.30
C      45.90      47.22      38.83
C      46.58      46.71      39.95
C      47.65      47.42      40.53
C      50.91      50.61      41.60
C      50.89      52.02      41.58
C      51.94      52.76      42.18
C      53.01      52.08      42.79
C      53.04      50.66      42.81
C      51.99      49.94      42.21
C      49.04      49.33      40.54
C      49.94      49.94      41.05
C      54.95      49.50      43.93
C      54.04      50.04      43.39
C      51.92      54.07      42.17
C      51.92      55.26      42.17
C      81.77      28.10      42.29
C      85.76      35.73      39.92
C      77.86      36.01      44.48
C      86.29      36.96      40.35
C      87.37      37.55      39.66
C      87.94      36.92      38.53
C      87.41      35.68      38.11
C      86.34      35.09      38.79
C      82.96      27.44      41.91
C      83.01      26.04      41.89
C      81.89      25.26      42.25
C      80.71      25.93      42.64
C      80.64      27.34      42.66
C      77.18      35.49      45.60
C      76.11      36.20      46.18
C      75.71      37.45      45.65
C      76.39      37.96      44.53
C      77.46      37.25      43.95
C      80.72      34.06      42.88
C      80.70      32.65      42.90
C      81.75      31.91      42.30
C      82.82      32.60      41.69
C      82.85      34.01      41.67
C      81.80      34.74      42.27
C      78.85      35.34      43.93
C      79.74      34.73      43.43
C      84.76      35.17      40.54
C      83.84      34.63      41.09
C      81.72      30.60      42.31
C      81.73      29.41      42.31
C      81.85      13.88      56.43
C      48.00      16.27       7.24
C      55.90      11.70       7.46
C      47.48      15.84       8.48
C      46.40      16.52       9.07
C      45.83      17.65       8.44
C      46.36      18.08       7.20
C      47.43      17.39       6.60
C      80.69      14.17      55.69
C      80.73      14.19      54.28
C      81.93      13.92      53.59
C      83.09      13.61      54.34
C      83.05      13.59      55.75
C      56.58      10.58       6.94
C      57.65      10.00       7.65
C      58.06      10.53       8.90
C      57.38      11.65       9.41
C      56.30      12.23       8.71
C      53.03      13.29       5.53
C      53.04      13.28       4.12
C      51.98      13.88       3.39
C      50.92      14.49       4.08
C      50.90      14.51       5.50
C      51.95      13.91       6.22
C      54.91      12.24       6.80
C      54.01      12.74       6.20
C      49.00      15.64       6.68
C      49.91      15.08       6.13
C      52.00      13.88       2.08
C      52.02      13.88       0.89
C      22.24      13.93      28.06
C      18.20      11.55      20.41
C      26.10      16.11      20.18
C      17.67      11.98      19.17
C      16.60      11.29      18.58
C      16.02      10.16      19.21
C      16.55       9.74      20.45
C      17.63      10.43      21.04
C      80.69      13.63      28.80
C      80.73      13.62      30.21
C      81.93      13.89      30.90
C      23.48      14.21      30.15
C      23.44      14.22      28.74
C      26.78      17.23      20.71
C      27.85      17.81      20.00
C      28.26      17.28      18.75
C      27.58      16.16      18.23
C      26.51      15.58      18.94
C      23.23      14.52      22.11
C      23.24      14.54      23.52
C      22.18      13.94      24.25
C      21.11      13.33      23.56
C      21.09      13.31      22.14
C      22.15      13.91      21.42
C      25.11      15.57      20.84
C      24.21      15.07      21.44
C      19.20      12.18      20.97
C      20.11      12.73      21.51
C      22.20      13.94      25.56
C      22.21      13.94      26.75
C      37.14      56.52      13.84
C      62.90       7.33      11.47
C      70.81       7.55      16.03
C      62.38       8.57      11.90
C      61.30       9.16      11.21
C      60.73       8.53      10.08
C      61.26       7.29       9.66
C      62.33       6.69      10.34
C      95.59      55.78      13.55
C      36.02      54.37      13.53
C      37.22      53.68      13.80
C      38.38      54.43      14.12
C      38.34      55.84      14.13
C      71.49       7.03      17.15
C      72.56       7.74      17.73
C      72.97       8.99      17.20
C      72.28       9.50      16.08
C      71.21       8.80      15.50
C      67.93       5.63      14.44
C      67.94       4.21      14.45
C      66.89       3.49      13.86
C      65.82       4.18      13.24
C      65.80       5.59      13.23
C      66.86       6.31      13.83
C      69.81       6.90      15.49
C      68.91       6.29      14.99
C      63.90       6.77      12.10
C      64.81       6.22      12.65
C      66.90       2.18      13.86
C      66.92       0.98      13.85
C      37.15      28.15      13.80
C      33.10      20.50      16.18
C      41.00      20.27      11.62
C      32.58      19.26      15.75
C      31.50      18.66      16.44
C      30.93      19.29      17.57
C      31.46      20.53      17.99
C      32.53      21.13      17.31
C      35.99      28.89      14.10
C      36.03      30.30      14.11
C      37.23      30.99      13.84
C      38.38      30.24      13.52
C      38.35      28.83      13.51
C      41.69      20.79      10.50
C      42.76      20.08       9.92
C      43.16      18.83      10.45
C      42.48      18.32      11.57
C      41.41      19.02      12.15
C      38.13      22.20      13.21
C      38.14      23.61      13.20
C      37.09      24.34      13.79
C      36.02      23.65      14.41
C      36.00      22.23      14.42
C      37.06      21.51      13.82
C      40.01      20.93      12.16
C      39.11      21.53      12.66
C      34.10      21.06      15.55
C      35.01      21.60      15.00
C      37.10      25.65      13.79
C      37.12      26.84      13.79
C      82.09      17.44      44.63
C      82.09      16.50      45.64
C      82.03      15.23      45.04
C      82.02      16.78      43.40
C      82.03      17.42      42.13
C      82.01      16.74      40.88
C      82.02      15.11      39.35
C      82.06      16.34      38.68
C      82.05      17.34      39.62
C      82.05      13.83      38.74
C      82.03      12.59      39.45
C      82.02      11.04      41.09
C      82.08      10.38      39.86
C      82.09      11.33      38.86
C      82.03      10.41      42.36
C      82.01      11.09      43.61
C      82.02      12.71      45.15
C      82.06      11.49      45.82
C      82.05      10.49      44.87
C      82.05      14.00      45.75
C      82.21      14.05      47.17
C      81.11      13.90      48.04
C      81.30      13.92      49.44
C      82.59      14.09      50.00
C      83.68      14.24      49.11
C      83.50      14.22      47.72
C      82.17       8.99      42.39
C      81.05       8.13      42.25
C      81.21       6.73      42.33
C      82.48       6.16      42.56
C      83.60       7.02      42.69
C      83.44       8.42      42.60
C      82.21      13.78      37.32
C      83.50      13.61      36.77
C      83.68      13.59      35.38
C      82.59      13.73      34.49
C      81.30      13.90      35.05
C      81.11      13.92      36.45
C      82.17      18.84      42.10
C      83.44      19.41      41.89
C      81.05      19.69      42.24
C      81.21      21.09      42.16
C      82.48      21.67      41.93
C      83.60      20.80      41.80
C      82.67       4.79      42.71
C      82.82      13.72      33.12
C      82.67      23.04      41.78
C      82.82      14.10      51.38
C      37.38      44.72      10.28
C      37.38      45.72      11.23
C      37.32      45.13      12.49
C      37.31      43.49      10.94
C      37.31      42.22      10.31
C      37.30      40.97      10.98
C      37.31      39.43      12.61
C      37.35      38.76      11.39
C      37.33      39.71      10.39
C      37.34      38.83      13.90
C      37.32      39.54      15.13
C      37.31      41.18      16.68
C      37.38      39.95      17.34
C      37.38      38.95      16.40
C      37.32      42.45      17.32
C      37.30      43.70      16.64
C      37.31      45.24      15.01
C      37.35      45.91      16.24
C      37.33      44.96      17.24
C      37.34      45.84      13.73
C      37.50      47.26      13.68
C      36.40      48.13      13.82
C      36.59      49.53      13.80
C      37.88      50.09      13.64
C      38.97      49.20      13.49
C      38.79      47.81      13.51
C      37.46      42.48      18.74
C      36.34      42.34      19.59
C      36.50      42.42      20.99
C      37.77      42.65      21.57
C      38.89      42.78      20.70
C      38.73      42.69      19.31
C      37.50      37.41      13.95
C      38.79      36.86      14.11
C      38.97      35.47      14.14
C      37.88      34.58      13.99
C      36.59      35.14      13.82
C      36.40      36.54      13.80
C      37.46      42.19       8.89
C      38.73      41.98       8.32
C      36.34      42.33       8.03
C      36.50      42.25       6.63
C      37.77      42.02       6.06
C      38.88      41.89       6.92
C      37.96      42.80      22.94
C      38.11      33.21      14.01
C      37.96      41.88       4.68
C      38.11      51.47      13.62
H      72.91      37.40      49.37
H      71.07      38.56      50.39
H      72.83      40.09      46.12
H      64.87      43.03      56.79
H      68.89      41.74      56.60
H      39.19      41.73       2.13
H      35.16      43.01       2.33
H      62.54      46.10      50.00
H      61.21      44.22      45.71
H      63.03      43.23      46.92
H      60.73      47.08      48.78
H      68.68      41.35      52.51
H      65.01      43.44      52.43
H      66.91      42.35      48.81
H      70.99      41.26      47.13
H     102.71      47.28      35.10
H     100.88      46.12      34.09
H     102.63      44.59      38.36
H      94.68      41.63      27.69
H      39.09      42.93      27.87
H      39.18      42.95      25.49
H      35.17      41.67      25.29
H      92.35      38.57      34.48
H      91.02      40.45      38.76
H      92.84      41.44      37.56
H      90.53      37.59      35.70
H      98.49      43.32      31.96
H      94.82      41.24      32.05
H      96.72      42.32      35.66
H     100.79      43.42      37.35
H      58.00      49.47      47.18
H      56.17      50.48      46.02
H      57.92      46.22      44.49
H      79.77       0.04      41.54
H      53.99      56.70      42.83
H      24.28       2.23      42.85
H      79.87       2.43      41.58
H      47.64      50.09      38.48
H      46.31      45.81      40.35
H      48.13      47.01      41.34
H      45.82      48.87      37.49
H      53.78      52.61      43.23
H      50.11      52.52      41.14
H      52.01      48.91      42.22
H      56.09      47.22      43.32
H      87.81      35.20      37.30
H      85.97      34.19      38.46
H      87.73      38.45      39.99
H      79.77      27.79      42.94
H      83.80      27.97      41.65
H      83.90      25.59      41.63
H      79.88      25.39      42.91
H      77.44      34.58      46.00
H      76.12      38.86      44.12
H      77.94      37.66      43.13
H      75.63      35.80      46.98
H      83.58      32.06      41.25
H      79.91      32.15      43.34
H      81.81      35.76      42.25
H      85.89      37.45      41.16
H      45.96      18.89       6.72
H      47.79      17.73       5.70
H      46.04      16.20       9.97
H      83.91      13.36      56.26
H      79.80      14.38      56.16
H      79.88      14.41      53.77
H      83.97      13.37      53.87
H      56.31      10.18       6.03
H      57.65      12.06      10.31
H      55.83      13.05       9.11
H      58.13       9.20       7.25
H      50.15      14.93       3.56
H      53.82      12.84       3.62
H      51.94      13.92       7.24
H      47.87      15.02       8.96
H      16.16       8.93      20.92
H      17.99      10.09      21.94
H      16.23      11.62      17.68
H      24.30      14.45      28.23
H      79.81      13.42      28.33
H      79.88      13.40      30.73
H      24.36      14.44      30.62
H      26.51      17.64      21.61
H      27.86      15.76      17.33
H      26.03      14.77      18.53
H      28.33      18.62      20.40
H      20.35      12.89      24.08
H      24.02      14.98      24.02
H      22.14      13.90      20.40
H      18.07      12.79      18.69
H      60.86       6.81       8.84
H      62.69       5.79      10.01
H      60.94      10.06      11.53
H      39.20      56.35      14.36
H      94.71      56.25      13.34
H      94.78      53.85      13.31
H      39.26      53.96      14.35
H      71.22       6.13      17.56
H      72.56      10.40      15.68
H      70.73       9.20      14.69
H      73.04       7.33      18.54
H      65.05       3.65      12.81
H      68.72       3.71      14.90
H      66.85       7.34      13.82
H      62.77       9.05      12.71
H      31.06      21.01      18.81
H      32.89      22.03      17.64
H      31.14      17.76      16.11
H      39.20      28.32      13.28
H      35.10      28.42      14.31
H      35.17      30.82      14.33
H      39.26      30.71      13.29
H      41.42      21.70      10.10
H      42.76      17.42      11.97
H      40.93      18.62      12.96
H      43.24      20.49       9.11
H      35.25      24.17      14.85
H      38.92      24.11      12.75
H      37.05      20.49      13.84
H      32.97      18.77      14.94
H      84.53      21.18      41.64
H      84.27      18.81      41.78
H      80.38      21.68      42.24
H      80.12      19.30      42.38
H      82.15      18.45      44.79
H      82.15      16.71      46.63
H      81.92      14.76      43.05
H      81.92      13.06      41.44
H      82.08      18.34      39.41
H      82.10      16.49      37.67
H      84.32      13.51      37.39
H      84.64      13.47      35.02
H      80.17      14.05      36.83
H      80.48      14.02      34.45
H      82.15      11.11      37.86
H      82.15       9.37      39.70
H      82.10      11.33      46.83
H      82.08       9.49      45.08
H      80.12       8.53      42.11
H      80.38       6.15      42.25
H      84.27       9.01      42.71
H      84.53       6.65      42.85
H      84.31      14.32      47.11
H      84.63      14.36      49.47
H      80.48      13.80      50.04
H      80.17      13.77      47.66
H      83.47       4.48      43.21
H      83.75      13.56      32.80
H      83.47      23.35      41.28
H      83.75      14.26      51.70
H      39.82      41.73       6.55
H      39.56      41.87       8.91
H      35.67      42.34       6.04
H      35.41      42.47       8.42
H      37.44      44.88       9.27
H      37.44      46.72      11.01
H      37.20      43.14      12.96
H      37.20      41.53      14.66
H      37.36      39.50       9.39
H      37.39      37.76      11.23
H      39.61      37.48      14.21
H      39.93      35.11      14.25
H      35.46      36.92      13.68
H      35.77      34.54      13.71
H      37.44      37.95      16.61
H      37.44      39.79      18.35
H      37.39      46.92      16.39
H      37.36      45.17      18.24
H      35.41      42.20      19.20
H      35.67      42.34      21.58
H      39.56      42.80      18.71
H      39.82      42.95      21.08
H      39.61      47.20      13.41
H      39.92      49.56      13.37
H      35.76      50.13      13.92
H      35.46      47.75      13.95
H      38.76      43.31      23.25
H      39.04      32.89      14.16
H      38.76      41.37       4.38
H      39.04      51.78      13.46
N      74.05      37.93      47.15
N      59.80      46.24      46.41
N      37.16      42.37       3.80
N      44.24      46.74      37.32
N      89.61      38.44      38.07
N      37.16      42.31      23.82
N      59.14      47.25      46.64
N      44.89      46.50      38.34
N      81.87       3.91      42.22
N      88.95      37.42      37.83
N      74.70      38.17      46.14
N      81.87      23.92      42.27
N      44.82      18.35       8.94
N      59.07      10.04       9.61
N      81.89      13.94      52.26
N      15.01       9.46      18.70
N      29.27      17.78      18.03
N      81.90      13.87      32.24
N      59.72       9.03       9.38
N      73.97       9.70      17.69
N      37.18      52.34      13.78
N      29.92      18.79      18.27
N      44.17      18.12       9.96
N      37.19      32.33      13.86
N      81.97      15.46      43.71
N      81.99      15.41      40.66
N      81.97      12.36      40.78
N      81.99      12.42      43.83
N      37.26      43.80      12.26
N      37.28      40.75      12.32
N      37.26      40.87      15.36
N      37.28      43.92      15.31
