26

H       7.61       4.33       1.88
H       8.18       2.40       0.63
H       3.69       7.09       0.77
H       6.88       9.59      -0.50
H       2.87       9.74       0.81
H       7.36       7.65      -1.82
H      11.26       4.95      -0.80
H       9.16       5.94      -1.82
H       5.82       6.04       1.88
H      12.17       2.33      -0.78
C       3.83       9.32       0.55
C       8.50       5.05       0.04
C       9.16       2.73       0.29
C       7.43       6.93      -1.01
C       6.53       6.00       1.05
C      10.77       4.03      -0.52
C       4.23       8.00       0.54
C       7.55       5.05       1.07
C       6.48       6.94       0.02
C      11.20       2.73      -0.50
C       5.89       9.29      -0.19
C       8.45       5.99      -0.99
N      10.18       1.93       0.00
N       5.54       8.00       0.06
N       4.88      10.10       0.10
N       9.47       4.01      -0.00
