29

C       1.66      10.48      10.11
C       1.08       9.38       9.26
C      -0.07       8.68       9.60
C      -0.52       7.62       8.79
C       0.23       7.25       7.67
C       1.40       7.92       7.33
C       1.84       8.99       8.12
C       0.20       4.43       7.68
C      -0.60       4.09       8.79
C      -0.15       3.06       9.62
C       1.04       2.38       9.35
C       1.80       2.70       8.20
C       1.38       3.75       7.38
C       1.53       1.27      10.24
H      -0.63       8.94      10.49
H      -1.40       7.04       9.07
H       2.00       7.57       6.49
H       2.73       9.54       7.85
H      -1.49       4.65       9.03
H      -0.73       2.76      10.49
H       2.65       2.09       7.95
H       1.99       4.07       6.54
S      -0.29       5.84       6.71
O       1.00      11.29      10.84
O       2.92      10.52      10.00
O       2.56       0.67       9.88
O       0.82       1.02      11.30
O       0.44       5.84       5.44
O      -1.75       5.85       6.75
