29

H       3.25      14.85      22.51
H       4.01      12.95      21.10
H       0.62      13.48      18.52
H      -0.12      15.45      19.88
H       4.11      10.57      21.05
H       3.36       8.68      22.52
H      -0.03       8.00      19.99
H       0.62       9.98      18.57
S       2.92      11.75      18.72
O       1.63      17.21      22.87
O      -0.30      16.41      22.06
O       0.07       6.56      21.89
O       1.81       6.93      23.32
O       2.20      11.76      17.45
O       4.38      11.76      18.78
C       0.97      16.38      22.14
C       1.54      15.29      21.29
C       2.69      14.58      21.62
C       3.14      13.52      20.82
C       2.39      13.16      19.69
C       1.21      13.83      19.36
C       0.78      14.90      20.15
C       2.42      10.35      19.71
C       3.21      10.00      20.82
C       2.78       8.97      21.65
C       1.59       8.29      21.37
C       0.83       8.62      20.23
C       1.24       9.67      19.41
C       1.10       7.18      22.25
