13

C       3.86      15.33      13.48
C       3.49      13.91      13.61
O       4.35      20.09      13.35
C       5.05      15.86      12.99
O       4.37      13.04      13.34
O       2.28      13.70      14.00
O       2.27      19.42      14.03
H       5.86      15.23      12.63
C       3.86      17.80      13.48
C       3.48      19.21      13.63
C       5.05      17.27      12.99
H       5.85      17.91      12.64
S       2.74      16.56      13.93
