13

H       9.40      42.65      23.01
C       8.78      43.44      22.59
C       7.25      41.65      21.70
C       7.63      43.10      21.87
C       9.11      44.78      22.76
H       9.98      45.09      23.34
C       6.86      44.14      21.33
O       6.05      41.44      21.29
O       8.14      40.80      21.97
H       5.96      43.90      20.77
N       8.38      45.78      22.22
C       7.28      45.45      21.51
H       6.73      46.29      21.09
