13

C       0.92      22.83       3.44
C      -0.62      24.61       2.55
C      -0.24      23.15       2.73
C       1.26      21.49       3.61
C      -0.58      20.80       2.38
C      -1.01      22.11       2.20
N       0.53      20.48       3.08
O      -1.84      24.82       2.21
H       1.54      23.62       3.86
H       2.13      21.18       4.19
H      -1.12      19.95       1.96
H      -1.91      22.33       1.64
O       0.30      25.45       2.72
