13

N       4.46      29.45      25.78
C       3.35      29.01      26.41
H       2.03      29.17      28.12
O       2.13      30.84      29.99
C       4.86      30.96      27.61
C       3.32      31.09      29.61
H       5.48      31.73      28.07
C       3.71      30.52      28.26
C       5.19      30.42      26.37
H       2.80      28.23      25.90
C       2.93      29.53      27.64
O       4.21      31.75      30.21
H       6.06      30.76      25.81
