13

S       6.59      33.11      23.48
C       7.72      31.88      23.04
C       7.36      30.46      23.18
C       8.92      32.42      22.56
C       7.72      34.35      23.05
C       7.35      35.77      23.20
C       8.91      33.82      22.57
O       6.15      30.24      23.57
H       9.73      31.78      22.23
H       9.72      34.46      22.23
O       6.14      35.98      23.61
O       8.23      36.63      22.91
O       8.24      29.60      22.91
