13

O       9.96       8.32       2.16
O      12.07       7.69       2.77
C      12.69      10.32       3.45
N      12.29      12.66       3.09
C      11.16       8.54       2.54
C      11.53       9.99       2.73
C      13.02      11.66       3.62
C      11.18      12.35       2.38
C      10.76      11.03       2.20
H      13.30       9.53       3.87
H      13.89      11.97       4.20
H      10.63      13.19       1.96
H       9.85      10.80       1.64
