13

N       4.45      36.81      25.78
H       5.44      34.57      28.12
H       6.05      35.50      25.85
H       2.79      38.05      25.88
C       4.83      35.33      27.64
C       3.28      35.22      29.62
C       3.67      35.78      28.27
C       5.17      35.85      26.39
C       3.34      37.26      26.40
C       2.90      36.76      27.63
H       1.99      37.13      28.10
O       4.20      34.64      30.27
O       2.07      35.41      29.98
