13

C       1.28      24.18       8.29
C      -0.56      24.91       9.50
C      -0.98      25.72       8.45
N       0.54      24.13       9.42
H       1.56      25.03       6.32
H       2.14      23.52       8.27
H      -1.11      24.84      10.44
H      -1.89      26.32       8.53
O      -1.79      27.11       6.14
O       0.31      26.88       5.26
C       0.94      24.99       7.21
C      -0.59      26.67       6.12
C      -0.21      25.78       7.28
