13

N       8.37      29.47       6.64
C       8.76      30.95       8.50
C       7.22      31.05      10.49
C       7.60      30.50       9.14
C       9.09      30.43       7.25
C       7.26      29.02       7.27
C       6.83      29.52       8.50
H       9.38      31.71       8.98
H       9.96      30.78       6.70
H       6.71      28.23       6.75
O       8.14      31.61      11.15
O       6.00      30.88      10.84
H       5.92      29.15       8.97
