13

C       6.72      27.50       3.25
C       5.20      27.50       3.25
C       4.49      26.91       2.20
C       3.09      26.92       2.24
N       2.40      27.49       3.25
C       4.48      28.10       4.28
C       3.09      28.07       4.25
H       5.02      26.45       1.37
H       2.49      26.47       1.45
O       7.27      28.07       4.25
H       5.00      28.59       5.10
H       2.48      28.53       5.03
O       7.27      26.93       2.26
