19

H       4.75       3.12       9.84
H       4.02       4.64       3.51
C       3.26       0.80      10.79
C       3.48       1.41       9.47
C       4.21       2.53       9.11
C       3.30       1.86       7.04
C       4.12       2.79       7.72
C       3.15       2.18       5.68
C       3.82       3.38       5.33
C       3.58       3.78       3.99
C       2.74       2.89       3.34
C       2.14       2.90       2.01
S       2.65       0.67       8.11
S       2.25       1.55       4.36
S       4.69       4.07       6.68
O       1.76       1.78       1.56
O       1.99       4.05       1.41
O       2.62      -0.23      10.91
O       3.88       1.44      11.86
