55

Mg       9.69       9.78       3.69
Mg       5.21       3.92       7.21
Mg       4.83       0.00       0.00
H       2.47       6.21      10.76
H       9.50       6.53      10.36
H       3.25       3.18       1.57
H      11.01       4.83       0.63
H      12.43       7.48       0.14
H       5.40       7.16       0.54
H      11.65      10.51       9.33
H       3.89       8.86      10.27
C       4.22       3.68       4.26
C      10.40       7.16       2.27
C       7.46       9.84       2.43
C       1.43       0.90       1.82
C       8.68       1.17       1.44
C       7.21       1.05       1.57
C       1.14       1.46       0.56
C       9.43       1.63       0.35
C      11.21       5.93       2.50
C       3.23       4.38       3.40
C       2.81       4.03       2.10
C      11.50       4.90       1.60
C      10.68      10.01       6.64
C       4.50       6.54       8.64
C       7.44       3.85       8.48
C      13.47      12.80       9.08
C       6.22      12.52       9.47
C       7.69      12.64       9.33
C      13.76      12.24      10.34
C       5.47      12.06      10.55
C       3.69       7.76       8.40
C      11.67       9.31       7.51
C      12.09       9.67       8.80
C       3.40       8.79       9.30
S       4.71       9.78       2.74
S       2.44       5.78       3.98
S      10.19       3.92       8.16
S      12.46       7.91       6.92
O       4.72       2.61       3.81
O       7.53       9.61       3.67
O       4.49       4.25       5.36
O       9.95       7.74       3.30
O      11.51      10.04       2.76
O       6.52       1.11       0.51
O       3.80       0.74       1.69
O      10.29       7.53       1.06
O      10.18      11.08       7.09
O       7.37       4.09       7.23
O      10.41       9.44       5.54
O       4.95       5.95       7.61
O       3.39       3.66       8.14
O       8.38      12.59      10.39
O      11.10      12.96       9.21
O       4.61       6.16       9.85
