22

H       0.55       4.52      13.37
H      -0.74       6.36      12.26
H      -3.25       6.37      12.46
H      -5.31       5.34      13.43
C      -0.54       4.55      13.41
C      -1.27       5.58      12.80
C      -2.65       5.58      12.90
C      -3.30       4.56      13.63
C      -4.71       4.54      13.86
C      -5.29       3.56      14.61
H      -6.36       3.56      14.82
C      -4.50       2.50      15.17
C      -5.07       1.45      15.94
H      -6.14       1.44      16.10
C      -3.10       2.48      14.97
C      -2.48       3.54      14.20
C      -4.25       0.47      16.46
C      -2.87       0.53      16.22
H      -4.66      -0.35      17.05
N      -1.13       3.55      14.08
N      -2.31       1.51      15.50
H      -2.18      -0.22      16.62
