22

C       0.22       9.68       0.59
C      -0.34      10.72       1.36
C       0.47      11.71       1.88
C       1.86      11.64       1.64
C       1.63       9.69       0.40
C       2.25       8.63      -0.37
H       5.27       7.66      -1.20
H       3.98       5.81      -2.32
H       1.48       5.80      -2.12
H      -0.59       6.84      -1.15
H      -1.64       8.62       0.24
H      -1.42      10.74       1.52
H       0.07      12.52       2.48
H       2.54      12.39       2.04
N       3.60       8.62      -0.50
N       2.42      10.67       0.92
C       4.18       7.63      -1.17
C       3.45       6.60      -1.78
C       2.07       6.60      -1.68
C       1.43       7.62      -0.95
C       0.01       7.64      -0.72
C      -0.57       8.62       0.03
