171

Cd      10.55       3.84       1.84
Cd       7.52       1.96       0.16
Cd       3.96       2.85       1.02
H       5.19       5.49       2.27
H       6.12       6.44       4.39
H       7.90      21.53       6.08
H       5.02       1.68       3.86
H       8.24       3.15       6.09
H      12.54      22.41       9.74
H       9.03       5.16      10.58
H       4.89       6.58       6.60
H       7.80       8.56       8.61
H       8.46      10.94       8.77
H       8.32      10.72      13.06
H       6.95       6.16      13.96
H       6.72       8.55      17.78
H       6.07       7.87      15.46
H       9.89       9.36      14.12
H      10.35      10.03      16.49
H       4.15      11.95      17.63
H       3.43      11.11      15.38
H       3.67       7.10      16.98
H       4.41       8.13      19.15
H       1.46       7.34      16.40
H      11.57      24.00      13.51
H      10.92       5.90      11.69
H       4.80       9.68      13.80
H       1.92       9.81      10.94
H      11.19      11.40       9.26
H      11.15       8.29       6.29
H       2.70       4.41       8.59
H       2.68       3.77       4.07
H       3.39       4.71       6.27
H       9.63       6.48       6.60
H       9.09       5.48       4.38
H       7.72       5.02       0.95
H       6.44       7.11       0.57
H       9.87       9.32       2.01
H       0.89       7.11       2.28
H       7.62      10.20       3.17
H       8.92      16.41      18.11
H       6.26      19.03      15.98
H       5.93      20.40      18.02
H       0.26       0.95       0.84
H       3.67      18.03       1.34
H      10.45      15.58       0.16
H      10.58      25.72      19.31
H       6.03      24.39      19.31
H       3.60      11.01       2.18
H       1.38      10.89       3.28
H      10.81      15.01       2.34
H       5.14       8.08       9.69
H       6.17       4.69      10.89
H       5.43       9.42      11.65
H       3.67       5.41      11.80
H       6.66      12.03       4.04
H       8.01      23.39      19.14
C       5.38       4.86       3.14
C       5.89       5.38       4.32
C       6.06       4.53       5.43
C       5.76       3.17       5.26
C       5.27       2.73       4.03
C       6.44       5.10       6.74
C       7.50       4.58       7.56
C       8.37       3.56       7.09
C      11.46      22.20       7.87
C      11.69      22.76       9.15
C       8.83       4.70       9.61
C       7.74       5.18       8.85
C       6.92       6.28       9.31
C       5.92       6.76       8.46
C       5.70       6.18       7.19
C       7.16       6.90      10.64
C       7.65       8.25      10.74
C       7.91       9.02       9.58
C       8.27      10.35       9.67
C       8.42      10.95      10.94
C       8.21      10.23      12.10
C       7.84       8.86      12.04
C       7.62       8.06      13.21
C       7.13       6.78      13.08
C       6.87       6.21      11.81
C       7.38       8.72      16.93
C       7.03       8.33      15.64
C       7.93       8.56      14.58
C       9.14       9.19      14.89
C       9.41       9.55      16.21
C       4.04      10.89      17.43
C       3.64      10.41      16.18
C       3.51       9.03      15.98
C       3.75       8.18      17.08
C       4.15       8.74      18.28
C       3.22       8.50      14.63
C       2.20       7.52      14.36
C       1.36       7.00      15.38
C      12.57      25.13      15.06
C      12.36      24.72      13.73
C      11.10       6.19      12.72
C       1.99       7.11      13.00
C       2.81       7.63      11.94
C       3.82       8.53      12.26
C       4.00       8.97      13.59
C       2.55       7.21      10.54
C       1.98       8.11       9.59
C       1.72       9.47       9.92
C      11.39      10.36       8.99
C      11.13       9.92       7.68
C       1.19       8.60       7.31
C       1.67       7.66       8.26
C       1.90       6.29       7.92
C       2.50       5.45       8.84
C       2.83       5.90      10.13
C       2.01       4.40       4.66
C       2.40       4.92       5.89
C       1.51       5.73       6.61
C      10.38       5.93       6.05
C      10.08       5.36       4.82
C       8.17       5.99       1.17
C       7.45       7.16       0.96
C       8.04       8.40       1.28
C       9.36       8.38       1.78
C      10.01       7.16       1.93
C       7.28       9.66       1.13
C       7.13      10.48       2.23
C       6.32      11.64       2.19
C       5.64      11.99       1.03
C       7.24      19.20      19.27
C       8.07      18.03      19.30
C       8.26      17.28      18.11
C       7.62      17.65      16.95
C       6.76      18.77      16.91
C       6.58      19.53      18.05
C      12.03      19.02       0.72
C       2.66      17.90       0.96
C       2.12      16.62       0.76
C      10.93      16.55       0.36
C      10.20      17.72       0.18
C       4.73      13.16       1.03
C       5.14      14.37       0.48
C       4.26      15.47       0.41
C       2.97      15.42       0.92
C       2.54      14.22       1.58
C       3.41      13.08       1.59
C       2.95      11.88       2.19
C       1.72      11.80       2.81
C      11.06      12.96       2.85
C      11.45      14.14       2.26
N       5.06       3.56       3.00
N       8.56       9.31      17.22
N       4.32      10.07      18.45
N       0.80       4.62       4.12
N       9.43       5.98       1.65
N      10.74      18.94       0.34
Cl       7.29      11.95      18.96
Cl      11.18      11.20      18.77
Cl      11.54      24.50      16.30
Cl       8.32       2.68       2.60
Cl      12.57      21.01       7.26
Cl       2.03       1.79       2.47
Cl       8.89      12.62      11.03
Cl       5.38       0.54       0.99
Cl      10.52      11.06       6.50
Cl       2.57       5.13       1.02
Cl       7.86      16.72      15.50
Cl       9.52      12.89       3.68
O       5.09       7.80       8.75
O       6.36       4.95      11.82
O       4.63       9.01      11.26
O       3.43       4.98      10.96
O       6.15      12.42       3.31
O       7.85      22.47      19.40
