28

C      -2.24       9.51       9.13
H      -4.45      10.25      10.61
H      -0.10      10.45      10.63
C      -2.56       7.62      11.27
O      -2.98       4.28      12.68
O      -3.53       5.09      10.68
O      -1.39       7.42      16.13
O      -1.34       9.62      15.79
C      -3.03       5.25      11.84
C      -1.48       8.44      15.33
C      -2.26      10.06      10.57
C      -3.56      10.88      10.76
H      -2.15       6.05      14.27
H      -1.65      10.20      13.29
H      -2.83       7.36      10.26
H      -3.61      11.31      11.76
H      -3.59      11.71      10.04
C      -2.56       6.60      12.23
C      -2.17       6.86      13.54
H      -1.07      11.79       9.96
H      -1.04      11.51      11.70
H      -3.14       8.92       8.89
H      -2.19      10.34       8.42
H      -1.36       8.87       8.95
C      -1.83       8.17      13.91
C      -1.89       9.20      12.96
C      -2.22       8.94      11.61
C      -1.05      11.00      10.73
