13

Cu       1.79      14.70       5.32
N       3.18      14.66       6.96
N       0.29      13.83       6.51
C       4.56      14.19       4.18
C       3.29      13.38       7.43
C       3.31      15.71       2.98
C       4.27      15.44       7.15
C      -0.79      16.06       4.37
N       3.36      14.79       3.98
N       0.32      15.39       3.98
C       0.25      14.77       2.77
C      -0.82      13.26       5.99
C       0.22      14.20       7.81
