13

C      11.73       1.17      50.54
C       6.65       1.78      53.35
C       7.69       0.49      54.96
Cu       9.24       0.40      52.40
N       7.76       1.12      53.75
N      10.81       0.53      53.71
C       6.65      -1.01      51.72
N      10.65       0.37      50.72
C       7.69      -0.04      49.90
N       7.76      -0.42      51.21
C      12.01      -0.08      53.52
C      10.77      -0.90      50.25
C      10.75       1.44      54.71
