13

C       3.18       1.16      36.02
Cu       5.69       0.40      34.14
C       8.29       1.79      33.18
C       7.24       0.50      31.58
C       8.27      -1.00      34.82
C       7.21      -0.03      36.63
N       7.17       1.14      32.77
C       2.92      -0.07      33.03
N       4.12       0.55      32.85
N       4.27       0.37      35.85
N       7.15      -0.41      35.32
C       4.15      -0.90      36.30
C       4.18       1.46      31.85
