13

C       3.60      23.69      39.87
N       3.52      19.89      36.66
C       4.66      19.17      36.50
C       2.05      22.10      40.49
C       2.71      19.99      35.57
N       2.89      22.58      39.54
Cu       3.74      21.37      38.09
N       3.93      22.83      36.66
C       3.80      19.07      39.86
C       2.78      23.54      36.50
C       5.37      20.64      40.50
C       4.74      22.74      35.57
N       4.54      20.17      39.55
