88

Cu       2.80      10.18       2.64
Cu      -0.79      13.88       1.37
Cu      -2.80      17.39       5.51
Cu       3.79       4.26      10.80
Cu      -5.81      14.98       9.52
Cu      -3.79      11.48      -2.64
Cu       0.79       6.67       6.79
Cu       5.81       7.77      -1.37
C       5.62       2.67       9.44
C       5.39       6.77      -4.03
C       1.98      10.04      -0.14
C       6.32       7.96      -4.25
C      -3.33      16.52       8.18
C       3.27       5.13       8.13
C       5.39      10.44       4.19
C       1.20       3.99      12.35
C      -0.54      16.43      -0.32
C      -5.39      13.99      -4.13
C       6.05       5.22       0.32
C      -0.92       4.97       5.41
C      -1.98       2.82       8.29
C       0.97      11.76       1.28
C       1.20       7.67       4.13
C      -4.61      11.61       0.14
C      -1.20      11.21      -4.19
C      -0.97       4.55       6.87
C      -6.32      15.18      -3.91
C       4.61       4.40       8.02
C       7.56       9.89      -1.28
C      -5.39      17.66       3.96
C       7.52       9.46      -2.74
C      -6.05      12.44       7.84
C      -0.27      13.69       4.25
C       0.27       6.47       3.91
C       0.92      12.19       2.74
C      -1.20      14.88       4.03
C       0.54       9.22       8.47
C       3.33       9.30      -0.03
C       5.67       2.25      10.89
C      -3.27      12.35       0.03
N       6.64       8.51      -2.94
N      -5.72      13.74       7.98
N       1.78      10.74       1.11
N       5.72       6.52       0.17
N       5.24       6.93       1.37
N      -5.24      14.14       6.78
N       2.78       4.99      13.45
N      -4.13      17.17       4.07
N       4.13       9.96       4.09
N       0.88       7.92       8.33
N      -0.88      15.13      -0.17
N      -0.05       5.92       5.21
N       4.81       3.69       9.26
N       2.46       4.48      12.24
N      -1.78       3.53       7.05
N      -1.35      14.73      -1.37
N       0.05      13.14       2.94
N       6.54       1.29      11.10
N       3.81       9.44       5.30
N       8.37      10.91      -1.11
N       1.35       7.51       9.53
N      -2.78      12.21      -5.30
N      -3.81      16.66       2.86
N      -2.46      11.69      -4.09
O      -1.53      15.17       2.80
O      -0.26       5.16       7.75
O      -2.72      12.40      -1.15
O       3.79       8.75      -1.05
O       1.68      11.61       3.61
O       2.80       5.69       7.11
O       4.98       6.14      -5.03
O      -5.06      13.70      -5.36
O       1.61       8.29       3.12
O       3.87       9.26       1.15
O      -2.80      12.90       1.05
O       1.53       7.95       5.36
O       5.06       6.48      -2.80
O       2.72       5.18       9.31
O       6.33       2.06       8.56
O       6.85       9.27      -0.41
O      -1.61      15.51       5.03
O       8.27      10.04      -3.61
O       0.26      12.38       0.41
O      -1.68       4.39       4.55
O      -4.98      13.36      -3.12
O       4.92       2.82      11.76
O      -3.79      15.97       9.20
O      -3.87      16.47       7.00
