14

C      35.30      23.48      14.53
C      35.30      21.78      11.35
Cu      36.79      24.01      12.20
O      34.70      24.98      10.14
O      36.93      24.58      10.32
O      36.93      25.89      12.78
Cu      34.39      24.41      12.00
O      34.69      26.28      12.59
O      36.50      22.14      11.61
C      35.89      24.94       9.67
C      35.89      26.64      12.85
O      36.49      23.44      14.07
O      34.25      23.84      13.88
O      34.26      22.53      11.43
