20

H       5.98       9.19       0.45
H       8.44       9.08       0.45
H       8.43      13.36      -0.33
H       5.97      13.26      -0.31
N       5.86      11.22       0.05
N      13.02      11.21      -0.07
H      12.89      13.25      -0.47
H      10.43      13.34      -0.45
H      10.45       9.07       0.34
H      12.91       9.17       0.30
C       6.57      10.09       0.27
C       7.95      10.04       0.27
C       8.71      11.21       0.03
C       7.95      12.40      -0.17
C       6.56      12.36      -0.15
C      12.31      12.34      -0.28
C      10.92      12.39      -0.27
C      10.17      11.21      -0.02
C      10.93      10.03       0.17
C      12.32      10.07       0.15
