308

C      11.83      25.05      31.34
C       0.77      24.10      30.99
C       0.91      23.68      29.65
C      11.07      25.09      28.94
C      10.98      25.54      30.29
C       1.25       1.58      32.63
C      11.64      25.46      32.80
C       1.69      23.50      32.00
C       2.92       3.43      32.56
C      11.35      13.10      31.37
C      10.37      14.06      31.03
C      10.23      14.49      29.69
C      11.08      14.01      28.69
C       0.05      13.08      28.97
C       0.15      12.62      30.32
C       9.93      10.68      32.66
C       9.47      14.67      32.05
C       8.29       8.82      32.61
C       6.75       5.64      32.42
C       5.96      18.16      32.52
C       6.60      17.16      31.64
C       1.50      23.89       0.18
C       0.49      24.79       0.59
C       0.39      25.08       1.99
C       1.26      24.52       2.96
C       2.25      23.62       2.50
C       2.37      23.31       1.14
C       0.05      24.16      28.65
C      10.21      25.05      33.15
C       9.26       0.17       0.28
C      10.98       2.01       0.04
C      11.97       1.08      32.88
C      11.31       3.38       0.15
C       0.57       3.84      33.15
C       1.60       2.96      32.78
C       9.77      23.70      33.07
C       8.42      23.30       0.08
C       7.52      24.32       0.45
C       7.93      25.65       0.56
C       9.59       1.61       0.36
C      10.23      25.56      27.91
C       8.00      21.97      33.16
C       1.12      24.74       4.34
C       9.63      14.25       0.22
C      10.64      13.33       0.63
C      10.74      13.03       2.02
C       9.88      13.60       3.00
C       8.89      14.50       2.55
C       8.77      14.82       1.19
C       0.91      13.13      33.17
C       1.91      12.17       0.23
C       0.22      10.28       0.01
C      11.25      11.20      32.89
C      11.97       8.91       0.11
C      10.66       8.43      33.14
C       9.61       9.30      32.80
C       1.29      14.51      33.15
C       2.62      14.95       0.17
C       3.58      13.96       0.46
C       3.23      12.60       0.49
C      11.55      12.69      32.82
C       1.62      10.72       0.28
C       0.89      12.62      27.93
C       2.95      16.32       0.18
C      10.03      13.36       4.38
C       5.81      13.15      17.72
C       6.78      14.14      18.03
C       7.50      14.30      15.60
C       6.51      13.35      15.22
C       6.44      12.99      13.84
C       7.31      13.51      12.84
C       8.27      14.45      13.27
C       8.36      14.84      14.61
C       6.90      14.60      19.36
C       6.06      14.13      20.38
C       5.07      13.16      20.11
C       4.98      12.67      18.78
C       4.19      13.11      15.92
C       3.23      12.13      15.58
C       4.95      10.28      15.84
C       5.95      11.22      16.22
C       5.28       8.91      15.74
C       6.59       8.46      15.98
C       7.62       9.35      16.33
C       7.27      10.72      16.47
C       3.75      14.47      15.98
C       2.40      14.87      15.74
C       1.49      13.85      15.38
C       1.90      12.51      15.30
C       5.62      12.71      16.27
C       3.56      10.68      15.52
C       7.67      14.74      17.00
C       8.94       8.88      16.53
C       4.22      12.71      21.14
C       1.98      16.20      15.88
C       7.22      13.09      11.50
C       5.32      25.04      17.68
C       4.36      24.05      17.99
C       3.63      23.92      15.55
C       4.61      24.87      15.18
C       4.69      25.24      13.80
C       3.83      24.72      12.80
C       2.87      23.77      13.22
C       2.77      23.37      14.57
C       4.23      23.58      19.32
C       5.07      24.05      20.34
C       6.07      25.02      20.08
C       6.15      25.52      18.75
C       6.93      25.04      15.89
C       7.94       0.14      15.61
C       6.25       2.03      15.86
C       5.23       1.11      16.20
C       5.95       3.41      15.77
C       4.65       3.89      15.98
C       3.59       3.01      16.31
C       3.91       1.63      16.43
C       7.31      23.66      15.89
C       8.64      23.22      15.65
C       9.61      24.22      15.38
C       9.26      25.58      15.36
C       5.52      25.49      16.24
C       7.65       1.60      15.59
C       3.48      23.46      16.95
C       2.27       3.49      16.49
C       6.91      25.47      21.12
C       8.97      21.86      15.62
C       3.92      25.13      11.46
C       5.48       7.44       0.15
C       6.73       6.98      32.89
C       4.42       5.34      32.84
C       5.25       8.75       0.80
C      11.51       4.87      15.71
C       0.71       5.33      16.20
C       0.73       6.67      16.67
C      10.45       6.96      16.25
C      11.28       3.56      15.06
C       4.74      17.96      33.22
C       4.29      19.05       0.76
C       6.17      20.38       0.16
C      11.99      20.01      16.52
C      10.76      20.21      15.83
C      10.30      19.12      15.06
C       0.15      17.78      15.65
C       0.58      21.02      17.39
C       3.83      25.50       8.23
C       2.97      24.87       9.18
C       1.80      24.29       8.63
C       2.35      24.95       6.41
C       5.11       0.29       8.58
C       7.33      12.67       8.29
C       8.19      13.32       9.22
C       9.36      13.89       8.67
C       8.80      13.20       6.46
C       6.05      12.02       8.64
C       8.11      23.62      24.04
C       7.85      24.82      23.32
C       8.29       0.15      23.93
C       9.17      24.84      25.82
C       7.74      22.27      23.59
C       3.02      14.55      24.07
C       3.27      13.36      23.34
C       2.83      12.16      23.95
C       1.95      13.33      25.84
C       3.41      15.91      23.62
H       1.98       0.92      32.36
H      10.45      22.98      32.78
H      10.25       0.36      30.53
H       1.63      23.00      29.39
H       2.71      23.77      31.71
H       1.59      22.42      31.93
H       8.65      21.30      32.81
H       3.64       2.76      32.39
H       9.19      11.34      32.42
H       0.88      11.93      30.54
H       9.52      15.18      29.44
H       2.26      10.22      32.79
H       8.44      14.45      31.75
H       9.63      15.75      32.01
H       7.62       9.44      32.20
H       7.62       5.23      32.08
H       6.07      16.21      31.62
H       6.64      17.55      30.61
H       7.61      16.98      31.98
H       6.53      24.10       0.64
H       7.23       0.49       0.82
H      10.60       4.06       0.44
H       0.75       4.85       0.02
H      11.71      25.73       2.30
H       2.89      23.16       3.16
H       3.10      22.65       0.85
H       0.19      23.83      27.69
H       8.93       2.15      32.92
H       9.38       1.94       1.39
H       9.64       0.47      28.10
H       0.27      25.14       4.66
H       4.55      14.22       0.67
H       3.96      11.92       0.71
H       0.65       8.24       0.37
H      10.50       7.42       0.00
H       0.58      15.21      32.94
H      11.47      12.38       2.33
H       8.26      14.96       3.21
H       8.05      15.49       0.91
H      10.94      14.36      27.73
H       1.89      10.36       1.28
H       2.23      16.98       0.37
H       1.46      11.83      28.11
H      10.88      12.97       4.70
H       0.51      14.06      15.20
H       1.20      11.80      15.06
H       4.57       8.23      15.47
H       6.77       7.45      15.88
H       8.00      11.39      16.72
H       4.43      15.19      16.25
H       5.73      12.30      13.56
H       8.93      14.87      12.60
H       9.08      15.52      14.88
H       4.27      11.97      18.56
H       7.60      15.31      19.60
H       6.19      14.50      21.32
H       2.90      10.16      16.21
H       3.34      10.34      14.50
H       8.70      14.52      17.30
H       7.53      15.82      17.03
H       2.63      16.88      16.21
H       9.65       9.54      16.74
H       3.78      11.82      21.06
H       6.52      12.42      11.28
H      10.58      23.96      15.17
H       9.99       0.40      15.15
H       6.68       4.08      15.53
H       4.48       4.89      15.89
H       3.16       0.97      16.67
H       6.59      22.96      16.09
H       5.40       0.06      13.53
H       2.21      23.35      12.55
H       2.06      22.69      14.83
H       6.87       0.35      18.54
H       3.54      22.87      19.55
H       4.94      23.67      21.28
H       8.29       2.08      16.33
H       7.92       1.97      14.60
H       2.44      23.64      17.26
H       3.66      22.38      16.96
H       8.25      21.20      15.43
H       1.60       2.87      16.89
H       7.35       0.49      21.03
H       4.61      25.81      11.24
H       6.18       9.29       1.00
H       4.75       8.60       1.75
H       4.62       9.36       0.15
H       1.60       7.08      17.01
H       0.16       3.02      14.86
H      10.77       3.70      14.10
H      10.65       2.94      15.70
H       3.44      18.97       1.31
H       9.44      19.19      14.51
H       0.05      21.97      17.41
H       0.63      20.64      18.41
H       1.59      21.19      17.04
H       1.13      23.80       9.24
H       4.92       1.14       9.23
H       5.63       0.65       7.69
H       5.76      25.44       9.09
H      10.02      14.39       9.27
H       6.24      11.17       9.31
H       5.53      11.63       7.76
H       5.39      12.73       9.13
H       8.12       1.05      23.48
H       7.23      22.26      22.62
H       8.63      21.65      23.50
H       7.07      21.81      24.32
H       2.99      11.26      23.50
H       3.91      15.91      22.65
H       2.51      16.53      23.54
H       4.08      16.36      24.35
N       5.62       4.88      32.40
N       6.62      19.36      32.63
N       4.39       6.61       0.09
N       3.28       4.65      32.87
N       7.90       7.64      32.95
N      11.64       7.43      16.69
N      10.42       5.69      15.76
N       9.31       7.66      16.22
N       1.88       4.67      16.15
N       5.00      20.21       0.82
N       6.81      21.55       0.29
N       4.15      16.75      33.22
N      11.02      17.96      15.00
N       0.60      18.82      16.41
N       0.79      16.62      15.52
N      10.17      21.42      15.83
N       1.52      24.34       7.30
N       3.49      25.50       6.91
N       2.17      24.96       5.09
N       3.16      24.71      10.50
N       9.63      13.82       7.34
N       7.67      12.65       6.97
N       8.98      13.16       5.14
N       8.00      13.50      10.55
N       8.93       0.13      25.14
N       8.76      23.69      25.24
N       9.83      24.74      26.98
N       7.16      24.76      22.17
N       2.19      12.17      25.16
N       2.37      14.49      25.27
N       1.29      13.44      27.00
N       3.97      13.42      22.20
