24

Mn       7.82       6.87       8.19
C       6.97       6.97      11.22
Mn      12.02       6.89       5.62
N       7.08       4.84       8.15
N       7.63       9.03       8.03
N      11.25       4.87       5.66
N      11.83       9.05       5.78
O      12.06       6.93       3.55
O       9.86       6.86       7.97
O      12.08       6.79       7.78
O       5.72       6.79       5.86
O       7.95       6.73       6.02
O       7.87       6.91      10.27
C      11.17       7.04       2.60
C      11.01       6.57       8.42
C       6.23       4.37       9.09
C       7.55       3.96       7.24
C       7.30       9.84       9.07
C       8.35       9.58       7.02
C       6.87       6.52       5.39
C      10.44       4.38       4.69
C      11.70       4.00       6.59
C      11.47       9.86       4.76
C      12.57       9.59       6.78
