82

Zn       6.48       4.50      11.46
Zn       3.49       4.20      11.77
H       8.92       5.47      21.77
H       1.21       5.34      10.61
H       7.81       2.72       7.68
H       2.15       6.00      15.58
H       2.84       0.69       5.17
H       7.12       0.71      20.25
H       1.03       3.17       1.46
H       7.35       5.56       0.95
H       2.60       3.09      22.28
H       5.35       2.66       4.79
H       4.61       6.01      18.45
H       3.15       0.17      11.76
H       6.82       8.53      11.48
H       8.75       3.36      12.62
C       4.79       6.87      11.65
C       5.94       3.15      16.18
C       3.91       5.64       5.64
C       6.04       3.03      17.58
C       4.40       4.57       4.85
C       5.55       4.08      18.38
C       4.70       8.26      11.66
C       5.27       0.44      11.57
C       4.78       4.33       9.05
C       5.18       4.37      14.18
C       4.58       3.71      20.54
C       5.17       1.84      11.59
C       5.37       4.94       2.69
C       6.81       4.55      20.36
C       3.14       4.10       2.87
C       6.90       4.69      21.75
C       3.05       3.96       1.48
C       5.78       4.33      22.53
C       4.17       4.31       0.70
C       4.62       3.83      21.93
C       5.34       4.82       1.30
C       8.06       5.19      22.36
C       4.99       3.45       5.43
C       1.90       3.45       0.87
C       6.44       5.17       0.51
C       3.51       3.48      22.72
C       4.96       5.21      17.81
C       5.12       3.35       6.81
C       4.85       5.33      16.43
C       4.63       4.39       7.61
C       5.34       4.30      15.62
C       4.02       5.53       7.04
S       5.83       1.88       7.49
S       4.14       6.82      15.76
S       3.17       7.08       4.91
S       6.78       1.58      18.30
N       5.67       4.07      19.79
N       4.28       4.58       3.44
N       1.50       4.00      11.97
N       8.47       4.71      11.26
Cl       3.41       6.83       8.09
Cl       6.55       1.87      15.12
O       5.97       6.39      11.53
O       6.48       5.41       3.30
O       7.86       4.90      19.58
O       2.09       3.75       3.65
O       4.85       1.25       8.44
O       6.17       0.88       6.41
O       7.24       2.25       8.34
O       3.83       7.81      16.84
O       5.13       7.44      14.80
O       2.73       6.46      14.92
O       3.29       7.10       3.42
O       4.00       2.32      11.70
O       1.71       7.11       5.29
O       3.92       8.46       5.53
O       6.12       0.36      17.73
O       8.24       1.56      17.93
O       6.64       1.53      19.98
O       3.73       6.16      11.76
O       6.24       2.55      11.47
O       5.96       4.45       9.55
O       4.00       4.25      13.68
O       3.72       4.22       9.78
O       6.24       4.48      13.45
O       3.46       3.24      19.93
