14

C     -10.40      43.63      28.17
C     -13.04      42.17      26.11
Cu     -13.21      43.47      28.61
Cu     -11.99      41.34      28.61
O     -12.88      43.56      30.55
O     -11.67      41.62      30.54
O     -13.47      43.23      26.68
C     -12.16      42.66      31.11
O     -12.40      41.22      26.68
C     -14.79      41.17      29.04
O     -11.46      44.34      28.29
O     -10.34      42.35      28.20
O     -14.87      42.44      28.93
O     -13.72      40.47      29.01
