14

C     -13.08      29.95       8.73
O     -13.55      29.76       7.56
O     -12.42      29.10       9.43
O     -13.08      26.20       5.94
O     -11.93      25.54       7.80
O     -11.64      28.57       5.92
O     -10.50      27.92       7.79
Cu     -13.37      28.01       6.67
Cu     -12.15      27.29       8.67
C     -14.97      26.93       8.72
C     -10.57      28.40       6.61
C     -12.38      25.36       6.61
O     -15.04      27.41       7.54
O     -13.90      26.74       9.40
