14

O      29.36      21.86      22.62
O      28.21      22.64      20.81
C      30.92      20.63      19.86
O      32.71      23.27      21.07
O      31.59      23.84      19.16
Cu      31.09      22.54      21.93
Cu      29.87      23.26      19.94
O      31.42      20.82      21.02
O      30.18      21.45      19.21
C      30.07      25.16      22.03
O      30.69      24.29      22.73
O      29.67      25.02      20.83
C      32.65      23.71      19.87
C      28.29      22.08      21.96
