14

C      33.24       6.87       6.63
C      36.88       3.95       8.70
O      33.64       5.87       5.94
O      36.42       5.92       5.91
C      33.31       3.88       8.74
Cu      35.06       4.70       6.67
Cu      35.05       6.11       8.67
O      33.62       7.17       7.82
O      36.41       7.24       7.77
O      36.48       3.64       7.52
O      36.49       4.96       9.38
O      33.71       3.59       7.56
O      33.70       4.89       9.44
C      36.80       6.93       6.59
