14

O      33.80      16.61      21.03
O      33.82      15.29      19.16
O      36.57      16.55      21.11
O      36.59      15.24      19.24
C      36.89      13.26      22.02
C      33.43      16.31      19.84
C      33.35      13.31      21.99
Cu      35.14      15.48      21.95
Cu      35.17      14.08      19.94
O      36.48      14.25      22.71
O      36.53      12.96      20.82
O      33.72      14.33      22.67
O      33.75      13.01      20.81
C      36.97      16.25      19.93
