14

Cu      13.44      28.00       6.62
Cu      12.21      27.31       8.61
C      10.65      28.46       6.55
O      13.71      29.77       7.46
O      12.58      29.11       9.34
O      13.12      26.20       5.91
O      11.94      25.55       7.75
C      15.00      26.89       8.71
C      12.43      25.36       6.58
O      15.08      27.39       7.54
O      13.93      26.68       9.38
C      13.27      29.94       8.65
O      11.72      28.59       5.85
O      10.57      27.99       7.74
