14

O      13.89      43.19      26.64
O      12.79      41.19      26.64
O      10.77      42.39      28.17
O      13.26      43.59      30.51
O      12.09      41.62      30.51
Cu      13.62      43.47      28.58
Cu      12.41      41.34      28.58
C      12.57      42.67      31.08
C      15.19      41.16      29.03
O      11.91      44.36      28.22
C      13.45      42.13      26.07
C      10.84      43.66      28.11
O      15.26      42.43      28.93
O      14.13      40.45      28.98
