14

C       4.46      20.60      19.95
Cu       4.23      22.55      21.96
Cu       5.46      23.26      19.97
C       7.03      22.17      22.07
O       2.59      23.10      21.03
C       2.67      23.67      19.88
O       3.74      23.91      19.23
O       5.96      22.06      22.77
O       7.09      22.59      20.86
C       5.22      25.21      21.98
O       4.06      20.76      21.15
O       5.09      21.46      19.24
O       4.49      24.38      22.63
O       5.74      25.01      20.83
