35

H       0.92       3.98       6.01
O       0.63       1.55       1.19
O      -1.67       1.54       1.03
O      -0.22       6.24       8.82
O       1.55       5.09       8.08
O      -3.31       8.32       4.77
O      -1.71       8.44       3.20
H       0.93       1.48       3.46
H       1.87       2.78       4.22
H       0.47       1.99       5.07
H      -1.36       3.94      -0.27
H      -3.01       3.60       0.38
H      -2.44       5.29       0.10
H      -3.93       6.18       3.44
H      -3.27       6.88       1.89
H      -4.07       5.28       1.94
C      -1.08       8.03       6.92
C      -0.70       3.30       2.29
C      -0.97       6.79       6.08
C       0.21       4.71       5.65
C      -0.11       5.76       6.51
C      -1.57       6.69       4.80
C      -1.35       5.53       3.97
C      -0.39       4.56       4.38
C      -0.09       3.43       3.56
C      -1.61       4.29       1.86
C      -2.05       5.30       2.76
C      -0.56       2.05       1.45
C       0.85       2.36       4.10
C      -2.14       4.28       0.44
C      -3.39       5.96       2.49
N       0.45       5.75       7.83
N      -2.21       7.86       4.25
O       0.04       8.50       7.39
O      -2.27       8.49       7.23
