784

C      11.42       6.99      48.06
C      10.69       5.82      48.07
C      10.40       5.49      49.39
C      11.62       7.39      49.39
C      12.33       8.55      49.80
C      12.59       8.91      51.15
C      12.65       8.88      53.38
C      13.32      10.02      52.95
C      13.28      10.05      51.57
C      12.45       8.48      54.73
C      11.69       7.36      55.15
C      10.37       5.52      55.15
C      10.65       5.86      56.48
C      11.47       6.97      56.48
C       9.56       4.43      54.74
C       9.32       4.05      53.39
C       9.36       4.02      51.16
C       8.61       2.92      51.59
C       8.58       2.95      52.97
C       9.64       4.36      49.81
C       9.20       3.45      48.81
C       9.96       2.30      48.52
C       9.57       1.43      47.49
C       8.41       1.68      46.73
C       7.64       2.84      47.02
C       8.03       3.71      48.06
C       8.95       3.63      55.75
C       9.68       2.61      56.40
C       9.05       1.74      57.30
C       7.66       1.86      57.56
C       6.94       2.90      56.93
C       7.58       3.77      56.03
C      13.06       9.28      55.73
C      12.31      10.27      56.42
C      12.95      11.14      57.32
C      14.34      11.06      57.55
C      15.08      10.06      56.87
C      14.45       9.18      55.98
C      12.75       9.46      48.79
C      11.89      10.51      48.41
C      14.00       9.31      48.14
C      14.37      10.20      47.11
C      13.52      11.26      46.74
C      12.28      11.41      47.40
C      11.29      18.69      40.83
C      10.56      19.86      40.83
C      10.37      20.26      39.51
C      11.59      18.36      39.51
C      12.35      17.23      39.09
C      12.63      16.89      37.74
C      12.67      16.92      35.51
C      13.41      15.82      35.94
C      13.39      15.80      37.32
C      12.43      17.30      34.16
C      11.62      18.39      33.75
C      10.30      20.22      33.75
C      10.52      19.84      32.42
C      11.34      18.73      32.42
C       9.54      21.35      34.17
C       9.34      21.74      35.52
C       9.40      21.78      37.75
C       8.71      22.92      37.33
C       8.67      22.89      35.95
C       9.66      21.42      39.10
C       9.23      22.33      40.11
C      10.09      23.38      40.49
C       9.70      24.28      41.50
C       8.46      24.13      42.16
C       7.61      23.06      41.78
C       7.99      22.18      40.76
C       8.92      22.15      33.17
C       9.67      23.13      32.48
C       9.03      24.01      31.58
C       7.64      23.93      31.35
C       6.90      22.92      32.03
C       7.54      22.04      32.92
C      13.04      16.50      33.15
C      12.30      15.48      32.51
C      12.94      14.61      31.61
C      14.33      14.72      31.34
C      15.05      15.77      31.97
C      14.41      16.64      32.87
C      12.79      16.33      40.10
C      12.03      15.18      40.38
C      13.96      16.58      40.85
C      14.34      15.71      41.89
C      13.58      14.56      42.18
C      12.42      14.30      41.41
C       1.13      18.79      11.23
C       1.86      19.96      11.23
C       2.15      20.29       9.90
C       0.93      18.40       9.91
C       0.22      17.24       9.50
C      18.82      16.87       8.15
C      18.76      16.91       5.92
C      18.09      15.76       6.35
C      18.13      15.73       7.73
C       0.10      17.30       4.57
C       0.87      18.43       4.15
C       2.19      20.26       4.15
C       1.90      19.92       2.82
C       1.08      18.81       2.82
C       2.99      21.35       4.56
C       3.23      21.73       5.91
C       3.19      21.76       8.14
C       3.95      22.86       7.71
C       3.97      22.84       6.33
C       2.91      21.42       9.49
C       3.36      22.33      10.49
C       2.59      23.48      10.78
C       2.98      24.35      11.81
C       4.15      24.10      12.57
C       4.91      22.94      12.28
C       4.53      22.07      11.24
C       3.60      22.15       3.55
C       2.87      23.17       2.90
C       3.51      24.04       2.00
C       4.90      23.92       1.74
C       5.61      22.88       2.37
C       4.98      22.01       3.26
C      18.34      16.50       3.57
C       0.24      15.52       2.88
C      18.46      14.64       1.98
C      17.06      14.72       1.75
C      16.32      15.73       2.42
C      16.96      16.60       3.32
C      18.66      16.33      10.51
C       0.66      15.27      10.89
C      17.41      16.47      11.16
C      17.04      15.59      12.19
C      17.89      14.52      12.56
C       0.28      14.38      11.90
C       1.25       7.09      18.47
C       1.99       5.92      18.46
C       2.18       5.52      19.79
C       0.97       7.42      19.79
C       0.21       8.55      20.21
C      18.78       8.89      21.56
C      18.74       8.86      23.79
C      18.00       9.97      23.36
C      18.03       9.99      21.98
C       0.13       8.48      25.14
C       0.93       7.38      25.55
C       2.25       5.56      25.55
C       2.03       5.93      26.87
C       1.21       7.04      26.88
C       3.02       4.43      25.13
C       3.22       4.04      23.78
C       3.16       4.00      21.55
C       3.85       2.87      21.97
C       3.89       2.89      23.35
C       2.90       4.37      20.20
C       3.32       3.46      19.19
C       2.47       2.40      18.81
C       2.85       1.51      17.80
C       4.09       1.65      17.14
C       4.94       2.72      17.52
C       4.57       3.61      18.54
C       3.63       3.63      26.13
C       2.89       2.65      26.82
C       3.52       1.77      27.72
C       4.92       1.85      27.94
C       5.65       2.86      27.27
C       5.02       3.74      26.38
C      18.37       9.28      26.15
C       0.25      10.30      26.79
C      18.47      11.17      27.69
C      17.08      11.06      27.96
C      16.36      10.02      27.33
C      17.00       9.14      26.43
C      18.62       9.46      19.20
C       0.53      10.61      18.92
C      17.45       9.20      18.45
C      17.07      10.07      17.42
C      17.83      11.23      17.12
C       0.14      11.48      17.89
C      13.93      11.52      44.34
C      13.96      12.33      43.19
C      13.86      13.74      43.30
C      13.84      14.32      44.59
C      13.80      13.51      45.75
C      13.82      12.10      45.63
C       8.05      24.39      44.55
C       8.03      25.19      45.71
C       8.13       0.87      45.60
C       8.14       1.45      44.31
C       8.19       0.64      43.15
C       8.16      24.97      43.27
C      17.47      14.26      14.96
C      17.45      13.45      16.11
C      17.55      12.04      16.00
C      17.57      11.47      14.71
C      17.61      12.27      13.55
C      17.59      13.68      13.67
C       4.51       1.39      14.75
C       4.53       0.59      13.59
C       4.43      24.91      13.70
C       4.41      24.33      14.99
C       4.37      25.14      16.15
C       4.40       0.82      16.03
C      15.58      14.27      59.06
C      14.88      13.39      58.21
C      15.00      11.99      58.40
C      15.82      11.51       0.25
C      16.52      12.40       1.09
C      16.40      13.79       0.90
C      15.63      11.51      29.88
C      14.92      12.40      30.72
C      14.99      13.80      30.50
C      15.78      14.27      29.42
C      16.49      13.38      28.58
C      16.41      11.98      28.80
C       6.40       1.40      29.85
C       7.10       0.52      30.69
C       6.97      24.85      30.50
C       6.16      24.38      29.45
C       5.45      25.26      28.61
C       5.58       0.93      28.80
C       6.34      24.38      59.02
C       7.06      25.27      58.19
C       6.99       0.93      58.41
C       6.21       1.40       0.28
C       5.50       0.51       1.11
C       5.56      24.85       0.89
C       3.42       6.99      48.06
C       2.69       5.82      48.07
C       2.40       5.49      49.39
C       3.62       7.39      49.39
C       4.33       8.55      49.80
C       4.59       8.91      51.15
C       4.65       8.88      53.38
C       5.32      10.02      52.95
C       5.28      10.05      51.57
C       4.45       8.48      54.73
C       3.69       7.36      55.15
C       2.37       5.52      55.15
C       2.65       5.86      56.48
C       3.47       6.97      56.48
C       1.56       4.43      54.74
C       1.32       4.05      53.39
C       1.36       4.02      51.16
C       0.61       2.92      51.59
C       0.58       2.95      52.97
C       1.64       4.36      49.81
C       1.20       3.45      48.81
C       1.96       2.30      48.52
C       1.57       1.43      47.49
C       0.41       1.68      46.73
C      18.50       2.84      47.02
C       0.03       3.71      48.06
C       0.95       3.63      55.75
C       1.68       2.61      56.40
C       1.05       1.74      57.30
C      18.51       1.86      57.56
C      17.79       2.90      56.93
C      18.43       3.77      56.03
C       5.06       9.28      55.73
C       4.31      10.27      56.42
C       4.95      11.14      57.32
C       6.34      11.06      57.55
C       7.08      10.06      56.87
C       6.45       9.18      55.98
C       4.75       9.46      48.79
C       3.89      10.51      48.41
C       6.00       9.31      48.14
C       6.37      10.20      47.11
C       5.52      11.26      46.74
C       4.28      11.41      47.40
C       3.29      18.69      40.83
C       2.56      19.86      40.83
C       2.37      20.26      39.51
C       3.59      18.36      39.51
C       4.35      17.23      39.09
C       4.63      16.89      37.74
C       4.67      16.92      35.51
C       5.41      15.82      35.94
C       5.39      15.80      37.32
C       4.43      17.30      34.16
C       3.62      18.39      33.75
C       2.30      20.22      33.75
C       2.52      19.84      32.42
C       3.34      18.73      32.42
C       1.54      21.35      34.17
C       1.34      21.74      35.52
C       1.40      21.78      37.75
C       0.71      22.92      37.33
C       0.67      22.89      35.95
C       1.66      21.42      39.10
C       1.23      22.33      40.11
C       2.09      23.38      40.49
C       1.70      24.28      41.50
C       0.46      24.13      42.16
C      18.47      23.06      41.78
C      18.84      22.18      40.76
C       0.92      22.15      33.17
C       1.67      23.13      32.48
C       1.03      24.01      31.58
C      18.49      23.93      31.35
C      17.76      22.92      32.03
C      18.39      22.04      32.92
C       5.04      16.50      33.15
C       4.30      15.48      32.51
C       4.94      14.61      31.61
C       6.33      14.72      31.34
C       7.05      15.77      31.97
C       6.41      16.64      32.87
C       4.79      16.33      40.10
C       4.03      15.18      40.38
C       5.96      16.58      40.85
C       6.34      15.71      41.89
C       5.58      14.56      42.18
C       4.42      14.30      41.41
C      11.98      18.79      11.23
C      12.72      19.96      11.23
C      13.01      20.29       9.90
C      11.79      18.40       9.91
C      11.08      17.24       9.50
C      10.82      16.87       8.15
C      10.76      16.91       5.92
C      10.09      15.76       6.35
C      10.13      15.73       7.73
C      10.96      17.30       4.57
C      11.72      18.43       4.15
C      13.04      20.26       4.15
C      12.76      19.92       2.82
C      11.94      18.81       2.82
C      13.85      21.35       4.56
C      14.09      21.73       5.91
C      14.05      21.76       8.14
C      14.80      22.86       7.71
C      14.83      22.84       6.33
C      13.77      21.42       9.49
C      14.21      22.33      10.49
C      13.45      23.48      10.78
C      13.84      24.35      11.81
C      15.00      24.10      12.57
C      15.77      22.94      12.28
C      15.38      22.07      11.24
C      14.46      22.15       3.55
C      13.72      23.17       2.90
C      14.36      24.04       2.00
C      15.75      23.92       1.74
C      16.47      22.88       2.37
C      15.83      22.01       3.26
C      10.34      16.50       3.57
C      11.09      15.52       2.88
C      10.46      14.64       1.98
C       9.06      14.72       1.75
C       8.32      15.73       2.42
C       8.96      16.60       3.32
C      10.66      16.33      10.51
C      11.51      15.27      10.89
C       9.41      16.47      11.16
C       9.04      15.59      12.19
C       9.89      14.52      12.56
C      11.13      14.38      11.90
C      12.11       7.09      18.47
C      12.84       5.92      18.46
C      13.04       5.52      19.79
C      11.82       7.42      19.79
C      11.06       8.55      20.21
C      10.78       8.89      21.56
C      10.74       8.86      23.79
C      10.00       9.97      23.36
C      10.03       9.99      21.98
C      10.98       8.48      25.14
C      11.78       7.38      25.55
C      13.10       5.56      25.55
C      12.89       5.93      26.87
C      12.07       7.04      26.88
C      13.87       4.43      25.13
C      14.07       4.04      23.78
C      14.01       4.00      21.55
C      14.71       2.87      21.97
C      14.75       2.89      23.35
C      13.75       4.37      20.20
C      14.18       3.46      19.19
C      13.32       2.40      18.81
C      13.71       1.51      17.80
C      14.95       1.65      17.14
C      15.80       2.72      17.52
C      15.42       3.61      18.54
C      14.49       3.63      26.13
C      13.74       2.65      26.82
C      14.38       1.77      27.72
C      15.77       1.85      27.94
C      16.51       2.86      27.27
C      15.87       3.74      26.38
C      10.37       9.28      26.15
C      11.10      10.30      26.79
C      10.47      11.17      27.69
C       9.08      11.06      27.96
C       8.36      10.02      27.33
C       9.00       9.14      26.43
C      10.62       9.46      19.20
C      11.38      10.61      18.92
C       9.45       9.20      18.45
C       9.07      10.07      17.42
C       9.83      11.23      17.12
C      10.99      11.48      17.89
C       5.93      11.52      44.34
C       5.96      12.33      43.19
C       5.86      13.74      43.30
C       5.84      14.32      44.59
C       5.80      13.51      45.75
C       5.82      12.10      45.63
C       0.05      24.39      44.55
C       0.03      25.19      45.71
C       0.13       0.87      45.60
C       0.14       1.45      44.31
C       0.19       0.64      43.15
C       0.16      24.97      43.27
C       9.47      14.26      14.96
C       9.45      13.45      16.11
C       9.55      12.04      16.00
C       9.57      11.47      14.71
C       9.61      12.27      13.55
C       9.59      13.68      13.67
C      15.36       1.39      14.75
C      15.39       0.59      13.59
C      15.28      24.91      13.70
C      15.26      24.33      14.99
C      15.22      25.14      16.15
C      15.25       0.82      16.03
C       7.58      14.27      59.06
C       6.88      13.39      58.21
C       7.00      11.99      58.40
C       7.82      11.51       0.25
C       8.52      12.40       1.09
C       8.40      13.79       0.90
C       7.63      11.51      29.88
C       6.92      12.40      30.72
C       6.99      13.80      30.50
C       7.78      14.27      29.42
C       8.49      13.38      28.58
C       8.41      11.98      28.80
C      17.25       1.40      29.85
C      17.95       0.52      30.69
C      17.83      24.85      30.50
C      17.01      24.38      29.45
C      16.31      25.26      28.61
C      16.43       0.93      28.80
C      17.20      24.38      59.02
C      17.91      25.27      58.19
C      17.84       0.93      58.41
C      17.06       1.40       0.28
C      16.35       0.51       1.11
C      16.42      24.85       0.89
H      11.61      12.13      47.12
H      10.98      10.63      48.86
H      15.26      10.06      46.64
H      14.62       8.54      48.39
H      11.76       7.46      47.22
H      10.41       5.32      47.23
H      10.93       6.49      51.10
H      10.97       6.48      53.44
H      13.69      10.78      50.99
H      13.75      10.75      53.53
H      11.31      10.37      56.25
H      12.38      11.84      57.80
H      15.01       8.49      55.47
H      16.10       9.99      57.00
H      11.83       7.43      57.32
H      10.34       5.38      57.32
H       8.15       2.22      51.01
H       8.11       2.25      53.55
H      10.68       2.47      56.19
H       9.60       1.00      57.75
H       7.02       4.49      55.56
H       5.93       3.00      57.08
H       7.47       4.54      48.24
H       6.81       3.06      46.47
H      10.18       0.64      47.27
H      10.83       2.11      49.03
H      11.81      13.50      41.63
H      11.16      14.98      39.86
H      15.17      15.93      42.44
H      14.52      17.42      40.67
H      11.57      18.18      41.68
H      10.21      20.32      41.68
H      11.07      19.37      37.80
H      11.02      19.34      35.46
H      13.85      15.09      37.90
H      13.88      15.12      35.36
H      11.31      15.34      32.71
H      12.39      13.87      31.16
H      14.97      17.36      33.34
H      16.06      15.87      31.82
H      11.66      18.25      31.58
H      10.16      20.30      31.58
H       8.30      23.65      37.91
H       8.23      23.62      35.37
H      10.67      23.24      32.65
H       9.59      24.71      31.10
H       6.97      21.35      33.43
H       5.89      22.85      31.90
H       7.36      21.41      40.50
H       6.72      22.92      42.26
H      10.36      25.00      41.79
H      11.00      23.50      40.04
H       0.94      13.65      12.18
H       1.57      15.16      10.44
H      16.14      15.72      12.66
H      16.78      17.24      10.91
H       0.79      18.33      12.08
H       2.15      20.47      12.07
H       1.62      19.29       8.20
H       1.58      19.31       5.86
H      17.72      15.00       8.31
H      17.65      15.04       5.77
H       1.24      15.41       3.05
H       0.17      13.94       1.50
H      16.39      17.29       3.83
H      15.31      15.80       2.30
H       0.73      18.35       1.98
H       2.23      20.39       1.98
H       4.41      23.56       8.29
H       4.44      23.53       5.75
H       1.87      23.31       3.10
H       2.96      24.78       1.55
H       5.53      21.29       3.74
H       6.62      22.78       2.22
H       5.09      21.24      11.06
H       5.74      22.72      12.83
H       2.38      25.15      12.03
H       1.73      23.67      10.27
H       0.74      12.28      17.67
H       1.39      10.80      19.43
H      16.23       9.85      16.86
H      16.89       8.37      18.64
H       0.97       7.59      17.62
H       2.33       5.45      17.62
H       1.50       6.42      21.50
H       1.54       6.44      23.84
H      17.57      10.69      21.41
H      17.53      10.66      23.94
H       1.24      10.43      26.59
H       0.17      11.91      28.14
H      16.44       8.42      25.96
H      15.35       9.92      27.48
H       0.89       7.52      27.72
H       2.39       5.48      27.72
H       4.26       2.14      21.39
H       4.33       2.17      23.93
H       1.88       2.54      26.65
H       2.96       1.07      28.20
H       5.58       4.43      25.87
H       6.67       2.94      27.40
H       5.20       4.38      18.79
H       5.84       2.86      17.04
H       2.19       0.78      17.51
H       1.55       2.28      19.26
H      13.75      15.33      44.70
H      13.91      10.51      44.23
H      14.86      11.85      41.60
H      12.84      14.52      47.05
H       8.24       2.46      44.20
H       8.07      23.37      44.66
H       7.13      24.71      47.30
H       9.14       1.66      41.85
H      17.66      10.45      14.60
H      17.50      15.28      15.07
H      16.55      13.94      17.70
H      18.57      11.26      12.25
H       4.32      23.32      15.10
H       4.48       2.41      14.63
H       5.43       1.08      12.00
H       3.41      24.12      17.44
H      15.90      10.50       0.42
H      15.50      15.28      58.88
H      13.38      14.33      57.54
H      18.03      11.45       1.76
H      15.83      15.27      29.22
H      15.58      10.51      30.08
H      13.45      11.43      31.44
H      17.95      14.35      27.86
H       6.08      23.37      29.27
H       6.47       2.41      30.02
H       8.60       1.46      31.36
H       3.95      24.32      27.94
H       6.16       2.40       0.47
H       6.39      23.38      58.83
H       8.52      24.29      57.47
H       4.04       1.49       1.83
H       3.61      12.13      47.12
H       2.98      10.63      48.86
H       7.26      10.06      46.64
H       6.62       8.54      48.39
H       3.76       7.46      47.22
H       2.41       5.32      47.23
H       2.93       6.49      51.10
H       2.97       6.48      53.44
H       5.69      10.78      50.99
H       5.75      10.75      53.53
H       3.31      10.37      56.25
H       4.38      11.84      57.80
H       7.01       8.49      55.47
H       8.10       9.99      57.00
H       3.83       7.43      57.32
H       2.34       5.38      57.32
H       0.15       2.22      51.01
H       0.11       2.25      53.55
H       2.68       2.47      56.19
H       1.60       1.00      57.75
H      17.88       4.49      55.56
H      16.79       3.00      57.08
H      18.32       4.54      48.24
H      17.66       3.06      46.47
H       2.18       0.64      47.27
H       2.83       2.11      49.03
H       3.81      13.50      41.63
H       3.16      14.98      39.86
H       7.17      15.93      42.44
H       6.52      17.42      40.67
H       3.57      18.18      41.68
H       2.21      20.32      41.68
H       3.07      19.37      37.80
H       3.02      19.34      35.46
H       5.85      15.09      37.90
H       5.88      15.12      35.36
H       3.31      15.34      32.71
H       4.39      13.87      31.16
H       6.97      17.36      33.34
H       8.06      15.87      31.82
H       3.66      18.25      31.58
H       2.16      20.30      31.58
H       0.30      23.65      37.91
H       0.23      23.62      35.37
H       2.67      23.24      32.65
H       1.59      24.71      31.10
H      17.83      21.35      33.43
H      16.74      22.85      31.90
H      18.22      21.41      40.50
H      17.57      22.92      42.26
H       2.36      25.00      41.79
H       3.00      23.50      40.04
H      11.79      13.65      12.18
H      12.43      15.16      10.44
H       8.14      15.72      12.66
H       8.78      17.24      10.91
H      11.64      18.33      12.08
H      13.00      20.47      12.07
H      12.48      19.29       8.20
H      12.43      19.31       5.86
H       9.72      15.00       8.31
H       9.65      15.04       5.77
H      12.10      15.41       3.05
H      11.02      13.94       1.50
H       8.39      17.29       3.83
H       7.31      15.80       2.30
H      11.58      18.35       1.98
H      13.08      20.39       1.98
H      15.26      23.56       8.29
H      15.30      23.53       5.75
H      12.73      23.31       3.10
H      13.81      24.78       1.55
H      16.39      21.29       3.74
H      17.48      22.78       2.22
H      15.94      21.24      11.06
H      16.60      22.72      12.83
H      13.23      25.15      12.03
H      12.58      23.67      10.27
H      11.60      12.28      17.67
H      12.25      10.80      19.43
H       8.23       9.85      16.86
H       8.89       8.37      18.64
H      11.83       7.59      17.62
H      13.18       5.45      17.62
H      12.35       6.42      21.50
H      12.39       6.44      23.84
H       9.57      10.69      21.41
H       9.53      10.66      23.94
H      12.10      10.43      26.59
H      11.02      11.91      28.14
H       8.44       8.42      25.96
H       7.35       9.92      27.48
H      11.74       7.52      27.72
H      13.24       5.48      27.72
H      15.12       2.14      21.39
H      15.18       2.17      23.93
H      12.74       2.54      26.65
H      13.81       1.07      28.20
H      16.44       4.43      25.87
H      17.52       2.94      27.40
H      16.05       4.38      18.79
H      16.69       2.86      17.04
H      13.05       0.78      17.51
H      12.41       2.28      19.26
H       5.75      15.33      44.70
H       5.91      10.51      44.23
H       6.86      11.85      41.60
H       4.84      14.52      47.05
H       0.24       2.46      44.20
H       0.07      23.37      44.66
H      17.98      24.71      47.30
H       1.14       1.66      41.85
H       9.66      10.45      14.60
H       9.50      15.28      15.07
H       8.55      13.94      17.70
H      10.57      11.26      12.25
H      15.17      23.32      15.10
H      15.34       2.41      14.63
H      16.29       1.08      12.00
H      14.27      24.12      17.44
H       7.90      10.50       0.42
H       7.50      15.28      58.88
H       5.38      14.33      57.54
H      10.03      11.45       1.76
H       7.83      15.27      29.22
H       7.58      10.51      30.08
H       5.45      11.43      31.44
H       9.95      14.35      27.86
H      16.93      23.37      29.27
H      17.33       2.41      30.02
H       0.60       1.46      31.36
H      14.81      24.32      27.94
H      17.02       2.40       0.47
H      17.25      23.38      58.83
H       0.52      24.29      57.47
H      14.89       1.49       1.83
N      10.99       6.45      50.14
N      12.23       8.24      52.26
N      11.01       6.45      54.40
N       9.76       4.66      52.27
N      11.00      19.33      38.76
N      12.22      17.53      36.63
N      10.98      19.32      34.50
N       9.75      21.11      36.63
N       1.57      19.33       9.16
N       0.32      17.54       7.03
N       1.54      19.33       4.90
N       2.79      21.12       7.03
N       1.55       6.46      20.54
N       0.33       8.25      22.67
N       1.57       6.46      24.80
N       2.80       4.67      22.66
N       2.99       6.45      50.14
N       4.23       8.24      52.26
N       3.01       6.45      54.40
N       1.76       4.66      52.27
N       3.00      19.33      38.76
N       4.22      17.53      36.63
N       2.98      19.32      34.50
N       1.75      21.11      36.63
N      12.42      19.33       9.16
N      11.17      17.54       7.03
N      12.40      19.33       4.90
N      13.64      21.12       7.03
N      12.41       6.46      20.54
N      11.18       8.25      22.67
N      12.43       6.46      24.80
N      13.66       4.67      22.66
O      13.96      11.70      41.98
O      13.73      14.11      46.97
O       8.02      24.57      46.92
O       8.25       1.24      41.93
O      17.45      14.08      17.32
O      17.68      11.68      12.33
O       4.54       1.22      12.38
O       4.30      24.54      17.37
O      14.18      13.90      57.17
O      17.23      11.88       2.14
O      14.25      11.89      31.79
O      17.16      13.89      27.51
O       7.80       1.03      31.74
O       4.75      24.75      27.56
O       7.73      24.76      57.12
O       4.83       1.02       2.18
O       5.96      11.70      41.98
O       5.73      14.11      46.97
O       0.02      24.57      46.92
O       0.25       1.24      41.93
O       9.45      14.08      17.32
O       9.68      11.68      12.33
O      15.39       1.22      12.38
O      15.15      24.54      17.37
O       6.18      13.90      57.17
O       9.23      11.88       2.14
O       6.25      11.89      31.79
O       9.16      13.89      27.51
O      18.66       1.03      31.74
O      15.60      24.75      27.56
O      18.58      24.76      57.12
O      15.68       1.02       2.18
