22

Eu       2.93      -1.36       9.96
C       6.04      -0.49       8.27
Eu       4.15      -1.67       6.34
O       3.66      -3.53       9.44
O       4.77      -3.71       7.48
O       4.51      -1.67      11.95
O       2.35      -2.18      12.25
O       0.80      -2.39       9.27
O       2.10      -2.04       7.49
O       3.42       0.51       6.86
O       2.31       0.68       8.82
O       2.58      -1.36       4.34
O       4.74      -0.84       4.04
O       6.27      -0.57       7.02
O       4.98      -1.00       8.80
C       4.53      -4.07       8.68
C       3.58      -2.27      12.59
C       3.94      -3.11      13.77
C       1.03      -2.52       8.04
C       2.56       1.04       7.62
C       3.51      -0.76       3.70
C       3.14       0.08       2.52
