26

H      21.18       3.59      18.22
H      20.96       2.47      19.60
H      16.89       4.14      17.38
H      18.36       4.01      16.38
H      20.09       2.16      16.85
H      19.82       1.03      18.22
H      17.72       1.23      19.67
H      16.53       2.52      19.35
H      17.66       3.92      20.77
H      18.88       2.65      21.08
H      17.97       5.54      18.81
H      19.44       5.44      17.78
O      16.11       1.30      17.05
C      17.41       1.50      16.86
O      17.94       1.35      15.64
C      20.42       3.05      18.82
C      19.44       4.06      19.50
C      17.97       3.88      17.41
C      18.14       2.40      17.85
C      19.66       2.08      17.88
C      17.61       2.27      19.31
C      18.38       3.24      20.28
C      18.71       4.84      18.37
C      20.23       5.05      20.37
O      21.36       5.51      19.90
O      19.61       5.71      21.35
