26

H      14.95       4.66      12.76
H      16.17       4.97      14.04
H      17.91       4.26       9.48
H      16.28       5.00       9.61
H      15.71       6.50      11.61
H      16.92       6.80      12.89
H      19.27       5.71      12.71
H      19.65       4.67      11.31
H      18.91       2.85      12.47
H      18.50       3.90      13.86
H      17.16       2.43      10.62
O      16.82       1.11      12.91
H      15.53       3.16      10.76
C      16.36       2.28      13.27
O      15.76       2.42      14.44
O      18.03       7.02       9.17
O      18.79       7.82      11.17
C      16.04       4.79      12.94
C      16.81       3.51      12.51
C      17.12       4.57      10.20
C      17.69       5.64      11.18
C      16.55       6.03      12.16
C      18.83       4.98      11.99
C      18.32       3.75      12.78
C      16.61       3.33      10.98
C      18.23       6.86      10.46
