26

O      12.84      12.90      12.93
H      11.68       8.33      11.27
H      11.90       9.29       9.77
H       9.17      11.36      13.31
H      10.47      10.26      13.86
H      12.63      10.03      12.50
H      12.86      10.99      11.00
O      10.69      13.55      13.32
H      11.01      12.58      10.21
H       8.56      11.07       9.93
H      10.07      10.89       8.99
H       8.23       9.68      12.10
H       9.53       8.56      12.63
H       9.49      12.74      11.14
O       7.88       8.47       9.83
O       9.83       7.33       9.49
C      11.55      12.64      12.93
C       9.19       8.43       9.86
C      11.45       9.31      10.79
C       9.91       9.50      10.68
C       9.98      10.68      12.95
C      11.01      11.47      12.11
C      12.10      10.46      11.62
C      10.29      12.02      10.85
C       9.65      10.88      10.02
C       9.34       9.54      12.13
