26

O      15.05      14.71      12.05
O      17.52      20.13       8.08
O      17.04      14.92      13.16
O      19.58      19.18       8.34
C      16.19      15.35      12.24
C      16.15      17.88       9.22
C      17.68      18.08       9.42
C      17.34      17.56      11.90
C      16.70      16.33      11.19
C      15.58      16.86      10.25
C      17.79      15.67      10.30
C      18.36      16.69       9.27
C      18.27      19.10       8.45
C      17.91      18.58      10.88
H      15.61      18.85       9.34
H      15.95      17.52       8.19
H      18.16      17.23      12.58
H      16.58      18.06      12.54
H      14.78      17.35      10.86
H      15.10      16.02       9.71
H      17.36      14.80       9.75
H      18.62      15.29      10.93
H      19.46      16.78       9.43
H      18.21      16.31       8.24
H      18.99      18.72      11.07
H      17.42      19.56      11.03
