26

H       1.56      25.22      17.65
H       2.29      26.59      18.55
H       4.46      27.66      17.71
H       5.23      27.08      16.20
H       6.45      25.56      17.38
H       5.72      26.16      18.91
H       5.36      23.58      16.13
H       3.83      22.88      16.73
C       2.50      27.11      15.81
O       4.90      22.24      19.19
O       3.03      27.54      14.68
O       6.82      23.42      18.81
O       1.20      27.17      15.99
C       3.36      24.70      18.76
C       4.71      24.39      18.06
C       3.61      24.85      15.81
C       3.30      26.13      16.64
C       2.53      25.70      17.93
C       4.65      26.75      17.09
C       5.48      25.73      17.90
C       4.41      23.83      16.65
C       5.50      23.37      18.85
H       2.77      23.76      18.90
H       3.54      25.12      19.78
H       4.21      25.12      14.92
H       2.67      24.39      15.45
