26

C      25.36      10.90       5.72
C      24.49       9.98       4.81
C      23.95      12.02       3.37
C      25.50      11.99       3.42
C      25.95      12.07       4.90
C      25.98      10.62       2.85
C      25.40       9.45       3.67
C      23.36      10.84       4.19
C      26.05      13.13       2.61
O      26.00      13.07       1.30
O      26.27      14.29       3.20
O      23.97       8.81       6.89
O      23.33       7.84       4.94
H      24.74      11.31       6.56
H      26.19      10.31       6.18
H      23.59      11.95       2.32
H      23.57      12.98       3.79
H      25.61      13.03       5.36
H      27.06      12.05       4.97
H      27.09      10.58       2.87
H      25.67      10.52       1.78
H      24.81       8.79       2.99
H      26.23       8.84       4.09
H      22.73      10.21       3.52
H      22.71      11.24       5.00
C      23.87       8.84       5.59
