26

H      10.83      22.91      16.10
H       9.47      23.96      16.60
H      13.96      25.57      17.79
H      13.85      24.58      16.31
H      11.69      24.63      14.89
H      10.32      25.68      15.39
H      10.49      27.09      17.53
H      11.99      27.06      18.51
H      11.14      25.31      19.73
H       9.64      25.35      18.75
H      13.11      23.83      19.01
H      12.98      22.84      17.52
O      13.35      26.67      14.68
C      12.68      27.02      15.77
O      12.17      28.23      15.88
C      10.58      23.88      16.59
C      11.13      23.89      18.05
C      13.26      24.99      17.16
C      12.12      25.91      16.64
C      11.16      25.05      15.77
O       9.43      22.19      18.45
C      10.75      25.26      18.69
C      12.67      23.81      17.98
O      10.95      22.58      20.11
C      11.32      26.44      17.86
C      10.55      22.75      18.86
