26

H      19.05      13.49       4.11
H      19.36      12.49       2.66
H      16.92      13.15       5.48
H      15.75      11.88       5.03
H      18.74       9.11       3.31
C      17.25      10.68       3.03
C      17.40      12.12       3.59
C      17.59      11.11       5.94
C      18.68      10.37       5.11
C      17.99       9.66       3.92
C      19.66      11.44       4.54
C      18.91      12.47       3.68
C      16.83      12.14       5.04
O      15.57      13.62       2.97
O      17.12      13.08       1.39
C      16.73      13.09       2.65
O      18.76       8.45       6.65
O      20.70       9.13       5.62
H      16.17      10.41       2.97
H      17.67      10.62       2.00
H      18.06      11.64       6.80
H      16.86      10.38       6.36
H      17.26       8.90       4.30
C      19.44       9.34       5.92
H      20.43      10.95       3.91
H      20.18      11.96       5.38
