26

O       4.45      23.92       7.56
O       4.57      22.65       9.44
C       1.53      27.63      12.17
O       0.70      27.19      13.11
O       2.03      28.84      12.26
C       2.76      27.29       9.93
C       2.23      26.62      11.24
C       2.06      24.41       9.92
C       3.54      24.85       9.68
C       3.51      26.26       9.02
C       4.22      25.01      11.08
C       3.45      26.01      11.97
C       1.30      25.44      10.82
C       4.32      23.80       8.87
H       1.91      27.73       9.36
H       3.45      28.12      10.18
H       2.04      23.41      10.41
H       1.54      24.31       8.94
H       3.00      26.20       8.03
H       4.55      26.61       8.84
H       5.27      25.36      10.95
H       4.27      24.03      11.60
H       3.10      25.48      12.89
H       4.15      26.82      12.30
H       0.91      24.92      11.72
H       0.42      25.84      10.26
