26

O       9.77       5.27       5.93
O       7.70       4.45       5.41
C      11.48       0.45       2.05
O      12.71       0.06       2.29
O      10.78      -0.12       1.10
C       8.80       1.94       4.50
C       9.65       3.24       4.59
C      11.73       1.80       4.20
C      10.81       1.45       2.99
C       9.48       0.89       3.57
C      10.50       2.76       2.22
C       9.83       3.80       3.16
C      11.06       2.84       5.13
C       9.01       4.29       5.48
H       8.66       1.50       5.51
H       7.78       2.17       4.10
H      12.70       2.22       3.83
H      11.97       0.89       4.78
H       9.67      -0.05       4.14
H       8.78       0.63       2.74
H       9.83       2.55       1.36
H      11.44       3.19       1.81
H      10.45       4.73       3.18
H       8.83       4.08       2.74
H      11.71       3.74       5.20
H      10.97       2.42       6.15
