26

O      23.52      22.02       8.72
O      26.48      17.75      13.71
O      26.88      16.59      11.79
C      26.45      17.68      12.39
H      27.16      19.59      10.53
H      26.56      18.11       9.71
H      23.21      20.90      12.02
H      24.64      21.75      11.35
H      25.79      20.85       9.22
C      26.24      19.01      10.29
H      25.16      19.37       8.43
C      23.93      20.07      10.11
C      25.30      19.87       9.42
H      24.50      16.88      10.66
C      24.18      20.75      11.49
H      23.71      17.48      12.16
H      23.11      18.16       9.40
H      22.32      18.77      10.89
C      25.53      18.58      11.61
H      24.59      19.60      13.32
H      26.02      20.45      12.66
C      23.30      18.67      10.37
C      24.24      17.80      11.23
C      25.12      19.87      12.37
C      23.03      20.91       9.24
O      21.73      20.76       9.34
