26

O      15.69      16.14      15.54
O      14.51      15.51      17.41
H      15.87      18.77      15.56
H      14.38      19.03      16.52
H      18.55      18.50      19.09
H      18.72      19.19      17.44
H      16.80      20.64      16.46
H      15.32      20.92      17.44
H      15.10      19.90      19.78
H      16.43      18.91      20.45
H      15.47      17.02      19.54
H      14.15      18.01      18.86
H      17.61      16.62      18.19
H      17.79      17.33      16.56
C      15.26      16.40      16.75
O      17.36      21.55      20.24
O      18.40      21.76      18.23
C      17.61      21.08      19.03
C      15.49      18.90      16.60
C      15.80      17.64      17.45
C      17.99      18.77      18.17
C      16.91      19.83      18.51
C      16.12      20.17      17.21
C      15.90      19.18      19.51
C      15.25      17.89      18.89
C      17.35      17.50      17.56
