26

O       6.83      21.13       4.11
C       3.27      20.09       4.76
C       4.67      20.02       4.10
C       4.48      17.46       4.07
C       3.20      17.94       3.34
C       2.40      18.87       4.31
C       3.63      18.80       2.11
C       4.48      20.01       2.56
C       5.33      18.67       4.52
O       5.09      22.25       5.10
O       2.69      16.14       1.78
C       2.37      16.76       2.89
O       1.50      16.22       3.73
H       3.36      20.09       5.87
H       2.75      21.03       4.47
H       5.08      16.81       3.40
H       4.20      16.86       4.96
H       2.09      18.30       5.21
H       1.48      19.23       3.81
H       2.73      19.16       1.57
H       4.22      18.19       1.40
H       5.47      19.97       2.05
H       3.99      20.96       2.23
H       6.35      18.58       4.06
H       5.47      18.64       5.62
C       5.58      21.17       4.49
