11

N       5.84       0.57       9.13
N       4.64       1.12       9.52
Cu       3.61       0.00      10.78
O       2.08       1.19      11.05
C       4.29       2.30       9.08
N       2.58      -1.12      12.04
N       1.39      -0.57      12.43
O       5.15      -1.19      10.51
C       5.99      -0.63       9.69
C       1.24       0.63      11.87
C       2.94      -2.30      12.48
