11

Cu       3.61      10.22      10.78
N       1.39      10.79       9.13
N       2.58      11.34       9.52
O       2.08       9.03      10.51
O       5.15      11.41      11.05
C       5.99      10.85      11.87
C       4.29       7.92      12.48
C       1.24       9.59       9.69
N       5.84       9.65      12.43
N       4.64       9.10      12.04
C       2.94      12.53       9.08
