11

C       5.84      13.16      15.06
C       4.94      15.33      17.50
Cu       7.23      13.79      16.17
C       7.00      16.19      18.09
C       8.61      13.16      17.29
N       8.17      15.28      14.94
N       5.02      12.99      14.22
N       6.28      15.28      17.40
N       9.44      12.99      18.12
C       9.52      15.33      14.84
C       7.45      16.19      14.26
