11

C       2.29      15.33       6.72
C       0.23      14.47       7.30
C      -1.39      17.50       6.50
N       0.95      15.38       6.62
Cu       0.00      16.87       5.39
N      -2.21      17.67       7.34
N      -0.95      15.38       4.16
C      -2.29      15.33       4.06
C      -0.23      14.47       3.48
C       1.39      17.50       4.28
N       2.21      17.67       3.44
