234

H       5.95      12.88       1.78
H       3.44      15.74       0.03
H      11.39      11.41       0.59
H       7.96      12.73      32.41
H       8.72      15.53      32.84
H       7.71      16.61      32.13
H       9.08      14.13       3.65
H       7.79      14.74       2.83
H      11.07      11.48      31.84
H      10.71      12.44       3.64
H       4.64      17.60      32.68
H       3.74      13.92       2.81
H      -7.78      14.49      13.06
H      -4.05      15.23      11.31
H      19.49      10.52      11.87
H      22.35      12.82       9.85
H      24.40      10.77      10.28
H      -5.43      11.10       9.57
H      23.01      11.16      14.93
H      24.18      11.97      14.11
H      19.71      10.76       9.29
H      20.73      10.59      14.92
H      -3.04      13.26      10.12
H      -5.78      15.89      14.09
H       0.48      25.57      24.34
H      -0.74      21.97      22.59
H      14.67       3.94      23.15
H      15.24       0.32      21.13
H      -3.20      26.65      21.56
H      -3.63      25.23      20.85
H      13.47       0.58      26.21
H      -2.05      26.24      25.39
H      14.77       3.63      20.56
H      14.11       2.84      26.19
H      -2.96      22.08      21.40
H       0.69      23.14      25.37
H      10.41      10.91      28.47
H       9.33       8.27      31.59
H      12.32       5.76      24.85
H      11.12       3.17      27.97
H      11.70       3.24      24.45
H      11.79       2.19      25.86
H       8.28      10.66      31.29
H       9.25      11.83      30.39
H      19.55      11.61       5.91
H      17.81      13.87       9.03
H      14.13      12.53       2.30
H      12.49      14.86       5.41
H      12.26      14.32       1.90
H      11.31      14.77       3.30
H      20.40      13.58       8.73
H      20.93      12.15       7.83
H      15.59       3.34      17.19
H      18.41       3.73      20.31
H      19.09       7.58      13.58
H      21.93       7.83      16.69
H      21.58       8.30      13.18
H      22.45       8.90      14.58
H      16.87       1.62      20.01
H      15.37       1.88      19.11
H       3.60      15.99      28.55
H       5.41      19.05      30.84
H       2.21      20.37      23.90
H       3.97      23.40      26.25
H       2.52      22.86      23.02
H       2.67      24.07      24.31
H       5.22      15.53      30.63
H       3.61      15.99      31.20
H      -3.91      14.97       5.99
H      -2.17      11.87       8.28
H       0.57      13.99       1.34
H       2.32      10.94       3.69
H       2.58      12.47       0.47
H       3.55      11.73       1.75
H      -5.12      13.80       8.07
H      -3.91      14.96       8.64
H      -1.04      21.98      17.27
H      -4.59      22.02      19.56
H      -4.13      18.59      12.62
H      -7.64      18.60      14.97
H      -6.45      17.61      11.74
H      -7.57      17.14      13.03
H      -1.45      23.62      19.35
H      -1.05      21.99      19.92
C       6.93      14.18       0.42
C       5.82      13.67       1.14
C       4.55      14.25       1.02
C       4.37      15.33       0.13
C       5.45      15.84      33.22
C       6.76      15.29      33.38
C       8.16      13.48       0.53
C       8.96      13.48       1.71
C      10.17      12.72       1.71
C      10.52      11.95       0.58
C       9.73      11.93      33.25
C       8.55      12.71      33.25
C      -7.14      12.99      11.70
C      -7.03      14.20      12.42
C      -5.89      15.02      12.30
C      -4.87      14.63      11.41
C      -4.97      13.44      10.66
C      -6.09      12.58      10.82
C      22.90      12.27      11.81
C      22.50      11.58      12.99
C      21.24      10.91      12.99
C      20.40      11.00      11.86
C      20.78      11.69      10.70
C      22.04      12.32      10.69
C      -1.14      25.77      22.98
C      -0.14      25.07      23.70
C      -0.01      23.68      23.58
C      -0.85      22.98      22.69
C      -1.83      23.66      21.94
C      -2.01      25.07      22.10
C      14.49       0.11      23.09
C      14.09       0.80      24.27
C      14.13       2.23      24.26
C      14.63       2.92      23.14
C      15.04       2.24      21.97
C      14.95       0.83      21.97
C       9.80       9.78      30.16
C       9.71       8.46      30.66
C      10.63       7.56      28.65
C      10.75       8.86      28.10
C      10.33       9.97      28.86
C      11.02       6.46      27.87
C      11.78       4.28      26.28
C      11.94       5.60      25.79
C      11.55       6.69      26.58
C      11.25       4.10      27.57
C      12.17       3.12      25.44
C       9.30      10.91      30.98
C      18.88      12.71       7.60
C      17.77      13.44       8.10
C      16.54      13.10       6.09
C      17.60      12.34       5.55
C      18.77      12.15       6.31
C      15.39      13.31       5.32
C      13.12      13.74       3.72
C      14.18      12.94       3.23
C      15.33      12.73       4.02
C      13.24      14.29       5.01
C      11.92      13.98       2.88
C      20.11      12.57       8.42
C      16.88       3.38      18.88
C      18.06       3.97      19.38
C      18.38       5.21      17.37
C      17.19       4.67      16.83
C      16.45       3.75      17.59
C      19.14       6.10      16.59
C      20.64       7.85      15.00
C      19.42       7.33      14.51
C      18.67       6.44      15.30
C      21.06       7.47      16.29
C      21.45       8.77      14.16
C      16.15       2.38      19.70
C       4.53      17.36      29.89
C       4.97      18.70      29.99
C       4.18      19.22      27.80
C       3.76      17.88      27.62
C       3.94      16.95      28.66
C       3.90      20.16      26.79
C       3.04      22.04      24.90
C       2.80      20.67      24.68
C       3.20      19.72      25.64
C       3.80      22.41      26.03
C       2.33      23.06      24.08
C       4.62      16.37      31.00
C      -3.19      13.48       7.33
C      -2.25      12.43       7.44
C      -1.41      12.85       5.25
C      -2.36      13.89       5.06
C      -3.25      14.19       6.11
C      -0.45      12.63       4.24
C       1.61      12.43       2.34
C       0.54      13.33       2.13
C      -0.48      13.45       3.08
C       1.55      11.59       3.48
C       2.84      12.54       1.52
C      -4.10      13.90       8.44
C      -2.69      22.10      18.61
C      -4.07      21.82      18.71
C      -4.12      20.87      16.53
C      -2.75      21.18      16.34
C      -2.04      21.80      17.39
C      -4.80      20.16      15.52
C      -6.00      18.48      13.62
C      -4.69      18.95      13.41
C      -4.07      19.78      14.36
C      -6.70      18.94      14.76
C      -6.52      17.35      12.80
C      -1.87      22.68      19.72
N       7.81      15.84      32.70
N       8.59      14.19       2.82
N      10.16      11.12      32.17
N      11.13      12.73       2.75
N       5.22      16.86      32.26
N       3.46      13.86       1.82
N      -6.15      11.40      10.14
N      23.30      11.55      14.10
N      19.86      11.72       9.61
N      20.76      10.08      14.03
N      -3.97      13.13       9.71
N      -5.69      16.16      13.10
N      -3.01      25.71      21.42
N      13.66       0.13      25.37
N      15.53       3.02      20.89
N      13.65       3.06      25.30
N      -2.60      22.95      20.99
N       0.88      22.93      24.38
N      10.12       7.41      29.90
N      10.89       5.18      28.32
N      11.65       7.97      26.13
N      11.27       9.00      26.86
N      16.67      13.62       7.34
N      14.35      14.06       5.76
N      16.39      12.00       3.58
N      17.46      11.82       4.30
N      18.77       4.84      18.62
N      20.31       6.63      17.04
N      17.51       5.89      14.86
N      16.81       5.05      15.58
N       4.77      19.57      28.97
N       4.18      21.48      26.94
N       2.86      18.41      25.53
N       3.12      17.54      26.47
N      -1.40      12.16       6.42
N       0.55      11.73       4.38
N      -1.45      14.40       2.97
N      -2.34      14.61       3.91
N      -4.73      21.21      17.69
N      -6.08      19.74      15.66
N      -2.76      20.13      14.25
N      -2.14      20.80      15.19
