15

N      11.95       7.53       7.91
H      10.88       5.80       8.26
C      12.49       8.39       7.01
C      13.28       9.56       7.57
O      13.82      10.32       6.75
C      11.25       6.47       7.49
H      11.39       6.97       4.13
H      10.46       5.36       5.82
O      13.30       9.66       8.86
C      12.32       8.21       5.64
O      14.02       8.88       4.07
O      12.14      10.10       4.20
C      11.56       7.12       5.20
C      11.03       6.23       6.13
C      12.89       9.16       4.62
