602

Zn       9.20      17.38      20.12
Zn      16.47       3.05      13.85
Zn      13.78       6.11       7.18
Zn       7.74       6.77      20.38
Zn      14.61       7.45      24.28
Zn       5.03      12.39       0.61
Zn      20.95      16.22      10.90
Zn      14.17      16.07       7.31
Zn      18.82       6.27       6.00
Zn      11.55      20.60      12.28
Zn      14.24      17.54      18.94
Zn      20.28      16.88       5.75
Zn      13.41      16.20       1.84
Zn      22.99      11.26      25.51
Zn       7.08       7.43      15.22
Zn      13.85       7.58      18.82
H      17.95       8.78       3.20
H      14.80      11.13       4.94
H      18.23      13.09       3.20
H      15.68       7.57       2.56
H      14.57       5.58       4.15
H      15.23       8.98       6.56
H      19.07       8.98       1.26
H       3.71       9.58       0.24
H       2.61      12.61       2.97
H      15.44      16.73       4.46
H      16.67      14.79       2.92
H      14.96      13.03       6.41
H       5.40      13.55       5.66
H       7.83      14.98       8.90
H       9.59      14.50       4.97
H       5.61      16.19       9.14
H      20.56      13.20       9.68
H       4.46      12.34       7.73
H       5.23      13.55       3.57
H       8.27      12.50       0.85
H       9.48      13.26       3.25
H      11.44      14.93       5.84
H       9.46      16.17       9.41
H      12.11      16.91       9.54
H      22.41      19.04      22.59
H      18.24      17.88      22.54
H      20.72      17.16      19.09
H      24.32      17.47      21.70
H      22.35      18.65      18.12
H       7.19      18.33      17.65
H      16.78      18.55      20.50
H      19.02      15.24      19.07
H      16.38      15.12      18.09
H      21.88      18.13      25.00
H      18.29      20.09      23.87
H      10.60      17.34       0.47
H      10.34      22.42      17.98
H      11.74       3.77      16.18
H      13.43      20.03      16.17
H      10.57      20.27      19.51
H      11.25      18.86      15.54
H      10.05      16.86      17.08
H       8.53       3.73      19.46
H       8.97       7.44      17.51
H      10.15       5.49      15.93
H      13.99       3.25      15.98
H      14.54      20.24      14.21
H      17.12      20.77      13.29
H      19.24       5.93      22.15
H      20.94       5.25      18.24
H      16.75       4.44      18.97
H      15.61       3.52      20.94
H      13.92       4.53      22.89
H      17.18       7.16      22.48
H      16.57       4.17      16.90
H      20.82       4.08      16.54
H      19.65       3.19      14.20
H      22.81       5.68      19.03
H      23.66       7.53      22.75
H      20.98       6.91      22.68
H      16.50      18.92       5.48
H      17.83      20.86       4.63
H      15.20       2.60       5.33
H      11.94       1.06       7.65
H      14.71      11.80      10.39
H      16.30      10.83      12.07
H      18.36      12.13      12.71
H      17.03      15.40      10.26
H      15.70      15.20      22.37
H      16.52      13.73      20.52
H      16.53      11.25      20.83
H      14.59      11.73      24.64
H       2.57      17.13       1.26
H      27.26      21.85      26.04
H      26.74      21.38      23.63
H      10.89      17.62      23.95
H      19.62       3.46      10.00
H       3.07       2.30       8.21
H       5.33      20.40       8.28
H      20.65      20.24      11.73
H      14.49       7.99      14.80
H      13.77       9.99      13.49
H      13.61       9.86      10.99
H      14.83       5.76      11.15
H       9.91       9.63      18.52
H      11.24      11.55      17.65
H      10.67      13.87      18.38
H       7.45      12.35      20.76
H      10.71       6.34      23.36
H      10.47      23.29      23.63
H      11.99      22.48      25.44
H       3.82       0.23       0.00
H      10.07      14.88      22.92
H      13.22      12.52      21.18
H       9.79      10.56      22.92
H      12.34      16.08      23.56
H      13.45      18.07      21.97
H      12.79      14.67      19.56
H       8.96      14.67      24.86
H      24.32      14.07      25.88
H      25.41      11.04      23.16
H      12.58       6.92      21.66
H      11.35       8.86      23.20
H      13.06      10.62      19.71
H      22.62      10.10      20.46
H      20.19       8.67      17.22
H      18.43       9.16      21.15
H      22.41       7.46      16.98
H       7.46      10.45      16.44
H      23.56      11.31      18.39
H      22.79      10.10      22.55
H      19.75      11.15      25.28
H      18.54      10.39      22.87
H      16.58       8.72      20.28
H      18.56       7.49      16.71
H      15.91       6.75      16.59
H       5.61       4.61       3.54
H       9.78       5.77       3.58
H       7.30       6.50       7.04
H       3.70       6.19       4.42
H       5.67       5.00       8.00
H      20.83       5.32       8.47
H      11.24       5.10       5.62
H       9.00       8.42       7.05
H      11.64       8.53       8.03
H       6.14       5.52       1.12
H       9.73       3.57       2.25
H      17.42       6.31      25.65
H      17.68       1.23       8.14
H      16.28      19.88       9.94
H      14.59       3.62       9.95
H      17.45       3.38       6.62
H      16.77       4.80      10.58
H      17.97       6.79       9.04
H      19.49      19.92       6.66
H      19.06      16.22       8.61
H      17.87      18.16      10.20
H      14.03      20.40      10.14
H      13.48       3.41      11.91
H      10.90       2.88      12.83
H       8.78      17.72       3.98
H       7.08      18.41       7.88
H      11.27      19.21       7.15
H      12.41      20.13       5.18
H      14.10      19.12       3.23
H      10.84      16.49       3.65
H      11.45      19.48       9.22
H       7.20      19.57       9.58
H       8.37      20.46      11.92
H       5.21      17.97       7.09
H       4.36      16.12       3.38
H       7.04      16.74       3.44
H      11.52       4.73      20.64
H      10.19       2.80      21.50
H      12.82      21.05      20.79
H      16.08      22.59      18.47
H      13.31      11.85      15.74
H      11.72      12.82      14.06
H       9.66      11.52      13.42
H      10.99       8.25      15.87
H      12.32       8.45       3.75
H      11.50       9.92       5.60
H      11.49      12.40       5.29
H      13.43      11.92       1.48
H      25.45       6.53      24.86
H       0.76       1.80       0.09
H       1.28       2.28       2.49
H      17.13       6.03       2.17
H       8.40      20.19      16.12
H      24.95      21.35      17.91
H      22.69       3.26      17.85
H       7.37       3.41      14.39
H      13.53      15.66      11.32
H      14.25      13.66      12.64
H      14.41      13.79      15.13
H      13.19      17.89      14.97
H      18.11      14.02       7.60
H      16.78      12.10       8.47
H      17.35       9.78       7.74
H      20.57      11.30       5.36
H      17.31      17.31       2.77
H      17.55       0.36       2.49
H      16.03       1.17       0.69
H      24.20      23.42      26.12
C      17.52       9.75       3.40
C      16.31       9.85       4.09
C      15.77      11.08       4.46
C      16.48      12.24       4.15
C      17.69      12.18       3.43
C      18.19      10.93       3.06
C      15.45       7.55       3.62
C      14.88       6.59       4.40
C      15.19       8.32       5.70
C       1.86       9.79       1.47
C       3.10      10.10       0.97
C       2.57      11.72       2.35
C      15.52      15.67       4.62
C      16.16      14.72       3.87
C      15.22      13.76       5.65
C       6.39      13.86       6.02
C       6.54      14.26       7.34
C       7.75      14.73       7.85
C       8.84      14.84       6.98
C       8.74      14.43       5.65
C       7.51      13.93       5.19
C       5.10      15.23       9.07
C      21.45      13.68       9.28
C       4.44      13.24       8.33
C       6.21      13.33       3.16
C       7.84      12.81       1.79
C       8.43      13.19       2.96
C      11.27      15.37       6.82
C      10.26      16.00       8.71
C      11.57      16.37       8.75
C      21.57      18.57      22.08
C      20.31      18.51      22.70
C      19.20      17.98      22.03
C      19.36      17.52      20.73
C      20.60      17.54      20.10
C      21.70      18.06      20.79
C      24.17      17.78      20.68
C      23.16      18.36      18.77
C      24.50      18.21      18.56
C      17.00      17.61      20.01
C      18.17      15.89      19.21
C      16.88      15.84      18.74
C      20.97      18.71      25.09
C      19.07      19.72      24.52
C      19.30      19.88      25.86
C      11.30      22.36      17.48
C       9.99       2.93      17.16
C      11.19       2.86      16.43
C      13.69      22.18      16.04
C      13.01      21.01      16.39
C      11.82      21.12      17.09
C      10.59      19.61      18.65
C      10.96      18.82      16.58
C      10.34      17.87      17.34
C       8.77       4.46      18.70
C       9.03       6.37      17.65
C       9.65       5.42      16.88
C      13.94       2.36      15.36
C      15.24      21.03      14.45
C      16.50      21.31      14.00
C      17.90       5.19      20.63
C      19.14       5.63      21.11
C      20.24       5.66      20.24
C      20.10       5.21      18.92
C      18.86       4.72      18.49
C      17.74       4.73      19.32
C      15.69       4.39      21.57
C      14.86       4.91      22.53
C      16.57       6.27      22.39
C      17.56       3.98      16.50
C      19.78       3.94      16.28
C      19.20       3.50      15.13
C      22.68       6.10      20.03
C      23.08       7.05      21.97
C      21.75       6.74      21.95
C      14.34      18.98       7.13
C      15.14      20.15       6.61
C      16.24      19.94       5.76
C      16.98      21.02       5.29
C      14.63       1.75       5.68
C      13.54       1.97       6.54
C      13.21       3.35       7.02
C      12.78       0.88       6.99
C      14.88      14.22       9.16
C      15.77      13.66      10.24
C      15.57      12.37      10.75
C      16.47      11.83      11.67
C      17.61      12.56      12.04
C      17.82      13.85      11.53
C      16.87      14.40      10.66
C      19.10      14.58      11.76
C      14.64      14.48      24.72
C      15.11      13.56      23.62
C      15.66      14.12      22.46
C      16.13      13.29      21.44
C      16.13      11.90      21.60
C      15.58      11.33      22.77
C      15.04      12.17      23.75
C      15.63       9.84      22.97
C       3.60      14.74       0.39
C      10.90      18.82      25.74
C       2.34      16.94       0.21
C       9.72      20.93      25.58
C       9.42      20.67      24.24
C       9.83      19.46      23.65
C      10.57      18.55      24.41
C       9.51      19.13      22.22
C      18.21       2.37      11.98
C      19.04       1.64      10.96
C      19.72       2.38       9.98
C      20.47       1.73       9.00
C      22.62      20.91       9.03
C      21.99      20.17      10.04
C      21.18      20.82      10.98
C      22.19      18.68      10.10
C      15.21       5.53      13.78
C      14.73       6.75      13.06
C      14.42       7.95      13.72
C      14.03       9.07      12.97
C      13.93       9.00      11.58
C      14.22       7.80      10.92
C      14.61       6.69      11.67
C      14.08       7.65       9.44
C       7.80       9.69      20.20
C       8.59      10.86      19.68
C       9.67      10.64      18.81
C      10.41      11.72      18.33
C      10.10      13.02      18.73
C       9.03      13.25      19.62
C       8.27      12.17      20.08
C       8.74      14.64      20.09
C      12.68       5.69      25.11
C      11.45       4.91      24.78
C      10.56       5.37      23.81
C       9.48       4.58      23.39
C       9.28       3.33      23.98
C      12.17      23.45      24.98
C      11.23       3.65      25.37
C       8.61       5.07      22.27
C      10.50      13.90      22.72
C      11.71      13.80      22.03
C      12.25      12.57      21.66
C      11.54      11.41      21.98
C      10.33      11.47      22.69
C       9.83      12.72      23.07
C      12.57      16.10      22.51
C      13.14      17.07      21.72
C      12.83      15.33      20.42
C      26.16      13.86      24.66
C      24.92      13.55      25.15
C      25.45      11.93      23.77
C      12.50       7.98      21.50
C      11.86       8.93      22.25
C      12.80       9.89      20.47
C      21.63       9.79      20.10
C      21.48       9.39      18.78
C      20.27       8.92      18.28
C      19.18       8.82      19.14
C      19.29       9.22      20.47
C      20.51       9.72      20.93
C      22.92       8.42      17.05
C       6.57       9.97      16.84
C      23.58      10.41      17.79
C      21.81      10.32      22.96
C      20.18      10.84      24.33
C      19.59      10.46      23.16
C      16.75       8.28      19.30
C      17.76       7.65      17.41
C      16.45       7.28      17.37
C       6.45       5.08       4.04
C       7.71       5.14       3.42
C       8.82       5.67       4.09
C       8.66       6.13       5.40
C       7.42       6.12       6.02
C       6.32       5.59       5.33
C       3.85       5.87       5.45
C       4.86       5.29       7.35
C       3.52       5.44       7.56
C      11.02       6.04       6.11
C       9.85       7.76       6.92
C      11.14       7.81       7.38
C       7.05       4.94       1.04
C       8.95       3.93       1.60
C       8.72       3.77       0.26
C      16.72       1.30       8.64
C      18.03      20.72       8.97
C      16.83      20.79       9.70
C      14.33       1.47      10.08
C      15.01       2.64       9.74
C      16.20       2.53       9.03
C      17.43       4.04       7.48
C      17.06       4.83       9.54
C      17.68       5.78       8.78
C      19.25      19.19       7.42
C      18.99      17.29       8.47
C      18.37      18.23       9.24
C      14.08      21.29      10.76
C      12.78       2.62      11.67
C      11.52       2.34      12.12
C      10.12      18.46       5.50
C       8.88      18.02       5.01
C       7.78      18.00       5.88
C       7.92      18.45       7.20
C       9.16      18.93       7.64
C      10.28      18.92       6.80
C      12.33      19.26       4.55
C      13.16      18.74       3.59
C      11.45      17.38       3.73
C      10.46      19.67       9.62
C       8.24      19.71       9.84
C       8.82      20.15      10.99
C       5.34      17.55       6.10
C       4.94      16.61       4.16
C       6.27      16.91       4.18
C      13.68       4.67      19.00
C      12.88       3.50      19.51
C      11.78       3.71      20.36
C      11.04       2.63      20.83
C      13.39      21.91      20.44
C      14.48      21.68      19.58
C      14.81      20.30      19.10
C      15.24      22.77      19.13
C      13.14       9.43      16.96
C      12.25       9.99      15.88
C      12.45      11.28      15.37
C      11.55      11.82      14.45
C      10.41      11.09      14.08
C      10.20       9.80      14.59
C      11.15       9.25      15.46
C       8.92       9.08      14.36
C      13.38       9.17       1.40
C      12.91      10.09       2.50
C      12.36       9.53       3.66
C      11.89      10.36       4.69
C      11.90      11.75       4.52
C      12.44      12.32       3.36
C      12.98      11.48       2.37
C      12.39      13.81       3.15
C      24.42       8.91      25.74
C      17.12       4.83       0.38
C      25.68       6.72      25.91
C      18.30       2.72       0.55
C      18.60       2.98       1.89
C      18.19       4.19       2.47
C      17.45       5.10       1.71
C      18.51       4.52       3.90
C       9.81      21.28      14.15
C       8.98      22.02      15.16
C       8.30      21.27      16.14
C       7.55      21.92      17.12
C       5.40       2.74      17.09
C       6.03       3.49      16.08
C       6.84       2.83      15.14
C       5.83       4.97      16.02
C      12.81      18.12      12.34
C      13.29      16.90      13.06
C      13.60      15.70      12.40
C      13.99      14.58      13.15
C      14.09      14.65      14.54
C      13.80      15.85      15.20
C      13.41      16.96      14.45
C      13.94      16.00      16.69
C      20.22      13.97       5.92
C      19.43      12.79       6.44
C      18.35      13.01       7.31
C      17.61      11.93       7.79
C      17.92      10.63       7.39
C      18.99      10.40       6.50
C      19.75      11.49       6.04
C      19.28       9.01       6.03
C      15.34      17.96       1.01
C      16.57      18.75       1.35
C      17.46      18.28       2.31
C      18.54      19.07       2.73
C      18.74      20.33       2.14
C      15.85       0.20       1.14
C      16.79      20.00       0.75
C      19.41      18.58       3.85
N      14.94      15.06       5.73
N      15.97      13.51       4.53
N      15.64       8.65       4.45
N      14.73       7.08       5.69
N      19.41      10.83       2.34
N       3.53      11.30       1.53
N       6.46      12.91       1.93
N       7.39      13.51       3.84
N      21.87      14.93       9.73
N       5.41      14.23       8.21
N      12.18      15.97       7.57
N      10.06      15.37       7.48
N      25.11      17.84      19.75
N      22.95      18.10      20.13
N      18.23      17.02      20.03
N      16.18      16.92      19.25
N      12.36      16.16       0.08
N      20.15      18.98      24.03
N      10.12      18.37      18.62
N      11.12      19.92      17.42
N       9.48       4.21      17.55
N       8.49       5.76      18.77
N      14.91      22.07      15.32
N      14.92       1.92      14.57
N      17.82       3.53      15.28
N      18.73       4.25      17.16
N      21.49       6.14      20.71
N      23.64       6.64      20.76
N      16.78       5.26      21.50
N      15.42       6.08      23.02
N      13.08       8.59      20.40
N      12.05      10.14      21.59
N      12.38      15.00      21.67
N      13.29      16.57      20.43
N       8.61      12.82      23.79
N      24.49      12.35      24.60
N      21.56      10.75      24.19
N      20.63      10.14      22.29
N       6.15       8.72      16.39
N      22.61       9.42      17.91
N      15.84       7.68      18.55
N      17.96       8.28      18.65
N       2.91       5.81       6.37
N       5.07       5.56       5.99
N       9.79       6.64       6.09
N      11.84       6.73       6.88
N      15.66       7.49      26.05
N       7.87       4.67       2.09
N      17.90       5.28       7.51
N      16.90       3.73       8.70
N      18.54      19.45       8.57
N      19.53      17.90       7.35
N      13.11       1.58      10.80
N      13.10      21.73      11.55
N      10.20      20.12      10.84
N       9.29      19.41       8.96
N       6.53      17.52       5.41
N       4.38      17.01       5.36
N      11.24      18.39       4.63
N      12.60      17.57       3.10
O      15.50       4.53      13.00
O      15.32       5.50      15.03
O      13.82       8.63       8.70
O      14.24       6.42       9.02
O      17.30       1.68      12.61
O      18.42       3.59      12.17
O      21.47      18.06      11.00
O       5.13      18.13       9.32
O       8.75       6.34      21.98
O       7.85       4.29      21.65
O      13.54       5.25      25.89
O      12.78       6.84      24.45
O      24.74       9.84      21.03
O       8.19       8.55      19.71
O       7.82      14.88      20.90
O       9.56      15.54      19.59
O      13.69      14.01      25.49
O      15.14      15.61      24.85
O      14.73       9.35      23.76
O      16.55       9.19      22.40
O      12.13      16.81      25.78
O       3.83      14.87       1.61
O       9.60      17.85      21.95
O       9.19      20.02      21.40
O      14.82      17.83       6.78
O      13.31      19.17       7.82
O      13.94       4.30       6.47
O      12.32       3.54       7.87
O      19.13      15.81      11.29
O      20.10      14.03      12.26
O      15.04      15.50       8.95
O      14.11      13.48       8.52
O      12.52      19.13      13.13
O      12.70      18.15      11.09
O      14.20      15.02      17.42
O      13.78      17.23      17.10
O      10.72      21.97      13.51
O       9.60      20.06      13.95
O       6.55       5.59      15.12
O      22.89       5.52      16.80
O      19.27      17.31       4.14
O      20.17      19.37       4.47
O      14.48      18.40       0.24
O      15.24      16.82       1.67
O       3.28      13.81       5.10
O      19.83      15.10       6.41
O      20.20       8.77       5.22
O      18.46       8.11       6.53
O      14.33       9.65       0.64
O      12.88       8.04       1.27
O      13.29      14.30       2.36
O      11.47      14.47       3.73
O      15.89       6.84       0.34
O      24.19       8.78      24.51
O      18.42       5.80       4.17
O      18.83       3.63       4.72
O      13.20       5.82      19.35
O      14.71       4.48      18.30
O      14.08      19.35      19.65
O      15.70      20.11      18.26
O       8.89       7.84      14.83
O       7.92       9.63      13.86
O      12.98       8.16      17.17
O      13.91      10.17      17.60
