19

P       2.52       6.70       4.16
H       0.37       6.57       8.96
H      -0.30       4.12       9.05
H       0.86       2.52       7.48
H       2.53       3.42       5.86
H       3.90       6.87       6.12
H       4.09       5.29       5.30
H       4.00       6.98       2.62
C       0.81       5.80       8.34
C       0.46       4.46       8.35
C       1.09       3.58       7.47
C       2.04       4.07       6.58
C       2.39       5.42       6.58
C       3.37       6.04       5.64
N       1.76       6.26       7.47
O       2.06       5.52       3.32
O       3.65       7.52       3.39
O       1.42       7.66       4.61
O       2.11       7.54       7.52
