19

P       4.81       3.70      11.23
H       6.96       3.83       6.42
H       7.63       6.28       6.34
H       6.47       7.88       7.90
H       4.80       6.98       9.52
H       3.43       3.53       9.27
H       3.24       5.11      10.08
H       3.34       3.42      12.77
C       6.52       4.60       7.05
C       6.87       5.94       7.04
C       6.24       6.82       7.92
C       5.29       6.33       8.80
C       4.94       4.98       8.80
C       3.96       4.36       9.74
N       5.57       4.13       7.92
O       5.28       4.88      12.06
O       3.68       2.88      11.99
O       5.91       2.74      10.78
O       5.22       2.86       7.86
