864

H       4.72       4.03       6.78
H       6.24       3.77       6.08
H       6.11       3.04       3.22
H       4.52       2.61       2.66
H       6.79       5.22       3.80
H       5.89       6.65       3.53
H       2.79       4.31       2.32
H       3.06       5.99       2.59
H       2.54       2.74       4.15
H       2.71       3.21       5.80
H       3.54       6.89       4.67
H       3.33       6.16       6.21
H      23.30      23.95       6.77
H      21.78      24.19       6.06
H      21.91      24.92       3.23
H      23.49      25.39       2.67
H      21.26      22.74       3.79
H      22.18      21.33       3.50
H      25.26      23.72       2.32
H      25.01      22.04       2.57
H      25.47      25.27       4.15
H      25.31      24.81       5.81
H      24.53      21.12       4.65
H      24.72      21.82       6.20
H      23.28       4.04      21.15
H      21.75       3.80      21.85
H      21.87       3.10      24.71
H      23.44       2.65      25.28
H      21.21       5.28      24.11
H      22.13       6.70      24.38
H      25.20       4.35      25.62
H      24.93       6.03      25.33
H      25.44       2.77      23.81
H      25.28       3.21      22.15
H      24.47       6.91      23.24
H      24.68       6.17      21.71
H       4.70      23.94      21.30
H       6.22      24.20      22.00
H       6.08      24.95      24.85
H       4.50      25.41      25.40
H       6.75      22.77      24.29
H       5.84      21.35      24.58
H       2.74      23.74      25.75
H       2.99      22.05      25.51
H       2.52      25.28      23.91
H       2.69      24.80      22.25
H       3.48      21.12      23.43
H       3.29      21.81      21.88
H       3.64       5.81      21.59
H       3.92       6.68      23.02
H       3.35       5.99      25.18
H       2.91       4.38      25.64
H       6.27       6.22      24.38
H       6.98       4.70      24.12
H       4.43       2.48      25.50
H       6.07       2.67      25.01
H       2.56       2.64      23.94
H       2.80       2.96      22.26
H       6.44       3.29      22.09
H       4.89       3.44      21.33
H      24.32      22.20      21.59
H      24.02      21.31      23.02
H      24.59      21.99      25.18
H      25.04      23.60      25.65
H      21.67      21.81      24.37
H      20.98      23.34      24.11
H      23.56      25.51      25.50
H      21.92      25.36      25.02
H      25.42      25.34      23.95
H      25.18      25.03      22.27
H      21.55      24.74      22.07
H      23.10      24.57      21.33
H       3.67      22.16       6.48
H       3.98      21.29       5.05
H       3.42      21.98       2.89
H       2.98      23.59       2.43
H       6.34      21.78       3.71
H       7.03      23.30       3.99
H       4.48      25.50       2.59
H       6.12      25.32       3.09
H       2.61      25.33       4.13
H       2.83      25.01       5.81
H       6.46      24.70       6.04
H       4.90      24.54       6.76
H      24.36       5.81       6.34
H      24.08       6.68       4.91
H      24.65       6.00       2.75
H      25.09       4.39       2.29
H      21.73       6.21       3.56
H      21.03       4.69       3.81
H      23.59       2.48       2.43
H      21.95       2.65       2.91
H      25.45       2.65       3.98
H      25.22       2.96       5.66
H      21.58       3.27       5.85
H      23.13       3.43       6.60
H      19.86      17.57      20.16
H      20.73      18.17      18.77
H      19.75      17.68      16.45
H      18.21      16.89      16.24
H      19.87      20.14      17.43
H      18.34      20.88      17.78
H      16.09      18.06      16.86
H      16.10      19.67      17.48
H      16.93      16.14      18.28
H      17.57      16.47      19.89
H      17.08      20.13      20.02
H      17.65      18.73      20.89
H       8.10      10.53      20.18
H       7.22       9.90      18.81
H       8.20      10.31      16.49
H       9.74      11.11      16.24
H       8.08       7.91      17.50
H       9.60       7.16      17.87
H      11.88       9.95      16.92
H      11.84       8.35      17.58
H      11.03      11.91      18.27
H      10.38      11.63      19.89
H      10.87       7.98      20.13
H      10.28       9.40      20.95
H       8.04      17.52       7.92
H       7.32      18.11       9.39
H       8.47      17.46      11.62
H      10.00      16.64      11.64
H       8.35      20.06      10.68
H       9.92      20.70      10.27
H      12.06      17.80      10.86
H      12.00      19.50      10.39
H      11.11      16.00       9.47
H      10.37      16.41       7.92
H      10.88      20.07       7.92
H      10.25      18.70       7.04
H      19.94      10.47       7.82
H      20.79       9.84       9.21
H      19.78      10.26      11.51
H      18.25      11.07      11.73
H      19.89       7.85      10.51
H      18.36       7.12      10.13
H      16.08       9.88      11.00
H      16.20       8.26      10.34
H      16.98      11.85       9.68
H      17.64      11.59       8.06
H      17.16       7.92       7.83
H      17.76       9.34       7.02
H      18.22      18.46       7.13
H      17.62      19.92       7.86
H      16.50      19.86      10.17
H      16.09      18.31      10.91
H      18.77      20.78      10.11
H      20.14      19.89      10.74
H      17.95      16.89      11.86
H      19.62      17.46      11.77
H      16.78      16.16       9.78
H      17.59      16.21       8.24
H      20.82      17.59       9.70
H      20.17      17.19       8.13
H       9.86       9.39       7.17
H      10.48       7.97       7.99
H      11.60       8.17      10.29
H      11.93       9.77      10.97
H       9.35       7.17      10.20
H       7.95       8.01      10.81
H       9.96      11.14      11.88
H       8.35      10.47      11.75
H      11.18      11.83       9.75
H      10.40      11.68       8.21
H       7.18      10.31       9.64
H       7.89      10.67       8.08
H      18.17       9.44      20.85
H      17.53       8.04      20.02
H      16.32       8.33      17.67
H      16.03      10.00      17.17
H      18.55       7.31      17.75
H      19.96       8.13      17.15
H      17.99      11.34      16.18
H      19.59      10.60      16.25
H      16.82      11.97      18.39
H      17.66      11.74      19.90
H      20.80      10.40      18.34
H      20.13      10.74      19.91
H       9.79      18.53      20.86
H      10.37      19.99      20.10
H      11.45      19.93      17.77
H      11.86      18.38      17.04
H       9.15      20.84      17.88
H       7.79      19.92      17.25
H       9.94      16.95      16.12
H       8.28      17.55      16.24
H      11.17      16.22      18.19
H      10.39      16.29      19.74
H       7.13      17.63      18.36
H       7.83      17.24      19.91
H       7.80       5.31       6.02
H       9.07       6.40       7.62
H       4.85       8.65       5.03
H       4.94       9.73       6.39
H       3.66       8.53       6.37
H       5.83       8.53      10.01
H       4.47       8.04       9.06
H       5.07       9.69       8.90
H      20.26      22.66       6.08
H      19.03      21.53       7.67
H      23.19      19.35       4.87
H      23.11      18.20       6.17
H      24.39      19.41       6.21
H      22.30      19.27       9.84
H      23.67      19.56       8.81
H      22.84      18.01       8.70
H      20.21       5.33      21.87
H      18.93       6.44      20.30
H      23.19       8.69      22.85
H      23.13       9.74      21.48
H      24.37       8.51      21.51
H      22.12       8.59      17.89
H      23.50       8.06      18.81
H      22.93       9.72      19.00
H       7.74      22.67      21.99
H       8.95      21.58      20.36
H       4.83      19.36      23.21
H       4.93      18.21      21.91
H       3.63      19.39      21.88
H       5.65      19.32      18.21
H       4.30      19.63      19.25
H       5.11      18.06      19.35
H       6.02       7.79      22.82
H       7.54       9.12      21.69
H       5.24       4.73      19.54
H       6.62       3.60      19.70
H       6.61       4.87      18.49
H      10.18       5.90      19.67
H       9.08       5.00      18.61
H       9.31       4.54      20.30
H      21.84      20.25      22.83
H      20.28      18.98      21.71
H      22.83      23.27      19.55
H      21.47      24.43      19.66
H      21.50      23.16      18.45
H      17.86      22.22      19.55
H      19.00      23.01      18.43
H      18.79      23.59      20.09
H       6.21      20.23       5.23
H       7.78      18.97       6.35
H       5.04      23.18       8.52
H       6.40      24.34       8.50
H       6.31      23.05       9.69
H       9.99      22.23       8.65
H       8.85      22.68       9.95
H       8.95      23.60       8.46
H      21.92       7.77       5.11
H      20.40       9.06       6.26
H      22.85       4.72       8.39
H      21.48       3.58       8.26
H      21.51       4.84       9.48
H      17.90       5.83       8.34
H      19.01       5.00       9.45
H      18.81       4.46       7.78
H       0.91       5.90       2.75
H      26.84       5.89       2.77
H       2.32       4.73       7.28
H       1.00       3.73       7.68
H       0.94       5.48       7.97
H      25.52       4.36       7.25
H      26.80       5.23       8.00
H      26.95       3.50       7.58
H      27.16      22.15       2.77
H       1.24      22.11       2.85
H      25.67      23.29       7.29
H      26.99      24.28       7.72
H      27.03      22.52       8.00
H       2.47      23.59       7.37
H       1.16      22.73       8.08
H       1.04      24.46       7.68
H      27.09       5.89      25.19
H       1.17       5.87      25.17
H      25.68       4.71      20.65
H      27.00       3.71      20.26
H      27.06       5.46      19.96
H       2.48       4.37      20.68
H       1.19       5.23      19.94
H       1.05       3.50      20.35
H       0.85      22.13      25.29
H      26.77      22.10      25.21
H       2.34      23.27      20.78
H       1.02      24.26      20.34
H       0.97      22.51      20.07
H      25.54      23.60      20.71
H      26.84      22.75      19.98
H      26.97      24.48      20.39
H       3.02       1.15       6.03
H       3.02      27.10       5.90
H       7.47       2.62       4.85
H       7.94       1.32       3.83
H       8.17       1.24       5.59
H       7.53      25.79       4.61
H       8.22      27.13       5.43
H       7.92      27.19       3.68
H       3.05      26.84      21.95
H       3.04       0.89      22.10
H       7.45      25.37      23.22
H       7.91      26.66      24.26
H       8.16      26.76      22.50
H       7.50       2.19      23.52
H       8.21       0.86      22.71
H       7.87       0.79      24.45
H      24.95      26.85       6.07
H      24.99       0.90       5.83
H      20.54      25.37       4.87
H      20.08      26.63       3.79
H      19.85      26.79       5.55
H      20.52       2.19       4.40
H      19.81       0.88       5.24
H      20.15       0.76       3.50
H      24.97       1.15      21.95
H      25.00      27.11      22.18
H      20.52       2.63      23.07
H      20.05       1.37      24.14
H      19.83       1.22      22.38
H      20.49      25.82      23.52
H      19.79      27.12      22.67
H      20.11      27.25      24.41
H       6.38       3.23       1.11
H       6.48       3.17      27.03
H       4.50       7.57       2.27
H       3.61       7.84       0.82
H       5.32       8.33       0.97
H       4.98       7.45      25.46
H       5.66       8.23      26.84
H       3.91       7.91      26.73
H      21.59       3.27      26.81
H      21.52       3.18       0.90
H      23.49       7.60      25.68
H      24.38       7.87      27.12
H      22.68       8.36      26.99
H      23.02       7.45       2.49
H      22.33       8.24       1.12
H      24.08       7.92       1.22
H       6.31      24.82      26.97
H       6.49      24.85       1.04
H       4.41      20.47      25.82
H       3.57      20.19      27.30
H       5.27      19.69      27.09
H       5.10      20.53       2.61
H       5.75      19.78       1.20
H       4.00      20.07       1.37
H      21.66      24.78       1.12
H      21.50      24.84      27.04
H      23.60      20.45       2.25
H      24.44      20.19       0.77
H      22.75      19.68       0.97
H      22.92      20.55      25.45
H      22.27      19.78      26.86
H      24.01      20.07      26.69
H      14.99      20.26      19.30
H      12.71      20.36      19.50
H      15.96      16.11      21.36
H      15.59      15.24      19.83
H      14.54      15.13      21.18
H      11.41      16.86      21.67
H      12.97      16.40      22.30
H      12.18      15.38      21.07
H      12.97       7.83      19.40
H      15.25       7.75      19.55
H      11.98      12.04      21.36
H      12.36      12.86      19.81
H      13.40      13.01      21.16
H      16.49      11.25      21.76
H      14.94      11.76      22.33
H      15.78      12.73      21.10
H      12.99      20.19       8.51
H      15.28      20.29       8.42
H      12.01      16.13       6.41
H      12.41      15.17       7.86
H      13.44      15.15       6.48
H      16.66      16.76       6.29
H      15.14      16.36       5.57
H      15.82      15.30       6.83
H      15.06       7.76       8.51
H      12.78       7.68       8.48
H      15.98      12.03       6.63
H      15.62      12.81       8.21
H      14.55      12.97       6.88
H      11.48      11.15       6.30
H      13.02      11.67       5.70
H      12.18      12.65       6.93
H      19.37      15.25      20.42
H      19.40      12.94      20.30
H      21.62      16.63      17.02
H      21.09      15.88      15.50
H      22.28      15.09      16.57
H      21.29      12.03      16.17
H      21.30      13.49      15.26
H      19.86      12.56      15.22
H      19.49      12.81       7.62
H      19.42      15.10       7.80
H      21.65      11.51      11.08
H      20.91      12.04      12.60
H      22.09      13.05      11.74
H      20.97      15.79      12.32
H      20.57      14.31      13.13
H      19.30      15.42      12.86
H       8.55      12.85      20.37
H       8.59      15.14      20.21
H       6.34      11.53      16.95
H       7.04      12.09      15.41
H       5.86      13.07      16.30
H       6.91      15.87      15.76
H       7.27      14.40      14.92
H       8.55      15.50      15.14
H       8.61      15.11       7.56
H       8.61      12.81       7.72
H       6.47      16.58      11.03
H       7.00      15.79      12.52
H       5.78      15.05      11.46
H       6.72      11.97      11.88
H       6.78      13.44      12.79
H       8.20      12.46      12.80
H      20.21      19.37      15.18
H      20.21      19.28      12.89
H      16.61      21.51      16.43
H      15.20      20.96      15.50
H      16.30      22.23      14.91
H      16.38      21.51      11.76
H      15.26      21.47      13.09
H      15.29      20.12      12.04
H       8.02      19.31      12.72
H       7.79      19.43      14.99
H      12.87      20.31      12.23
H      12.97      18.57      12.64
H      13.43      19.74      13.79
H      11.32      21.59      16.16
H      12.22      21.73      14.67
H      12.78      20.61      15.92
H      20.14       8.48      12.82
H      20.04       8.71      15.08
H      16.57       6.42      11.87
H      15.12       7.39      12.16
H      15.74       6.31      13.41
H      15.10       7.99      15.87
H      14.57       8.41      14.27
H      15.15       9.68      15.26
H       7.78       8.60      15.21
H       7.82       8.68      12.92
H      11.32       6.48      16.50
H      12.77       7.07      15.69
H      11.73       5.82      14.97
H      11.89       6.64      11.90
H      12.92       6.78      13.29
H      12.83       8.14      12.24
C       5.20       5.57       5.28
C       5.77       5.62       3.82
C       5.25       4.08       5.82
C       4.63       3.03       4.81
C       5.06       3.30       3.32
C       4.88       4.79       2.81
C       3.32       5.01       2.96
C       2.78       4.90       4.45
C       3.10       3.41       4.82
C       3.67       5.95       5.21
C      22.84      22.40       5.27
C      22.28      22.36       3.80
C      22.78      23.90       5.81
C      23.39      24.96       4.82
C      22.96      24.69       3.33
C      23.16      23.21       2.80
C      24.73      23.00       2.96
C      25.26      23.11       4.46
C      24.93      24.60       4.83
C      24.37      22.04       5.20
C      22.80       5.60      22.63
C      22.23       5.66      24.10
C      22.75       4.10      22.11
C      23.36       3.06      23.13
C      22.91       3.34      24.61
C      23.11       4.83      25.12
C      24.67       5.05      24.97
C      25.21       4.92      23.48
C      24.89       3.43      23.13
C      24.33       5.97      22.71
C       5.16      22.41      22.81
C       5.72      22.38      24.28
C       5.22      23.90      22.26
C       4.61      24.97      23.25
C       5.03      24.71      24.74
C       4.83      23.23      25.27
C       3.27      23.01      25.11
C       2.75      23.11      23.62
C       3.07      24.60      23.24
C       3.63      22.05      22.88
C       5.44       5.15      22.62
C       6.01       5.21      24.09
C       3.95       5.67      22.61
C       2.98       4.75      23.46
C       3.52       4.96      24.93
C       5.04       4.58      25.16
C       5.08       3.04      24.81
C       4.69       2.70      23.32
C       3.19       3.20      23.23
C       5.42       3.61      22.27
C      22.53      22.87      22.61
C      21.94      22.81      24.09
C      24.00      22.33      22.61
C      24.98      23.23      23.47
C      24.43      23.03      24.93
C      22.92      23.42      25.16
C      22.90      24.97      24.82
C      23.30      25.30      23.33
C      24.79      24.78      23.24
C      22.57      24.41      22.27
C       5.47      22.84       5.48
C       6.07      22.78       4.01
C       4.00      22.30       5.46
C       3.03      23.22       4.61
C       3.59      23.02       3.14
C       5.10      23.40       2.93
C       5.13      24.95       3.28
C       4.72      25.28       4.76
C       3.23      24.77       4.84
C       5.44      24.38       5.83
C      22.57       5.14       5.32
C      21.99       5.20       3.84
C      24.05       5.67       5.32
C      25.02       4.76       4.47
C      24.48       4.96       3.00
C      22.97       4.58       2.77
C      22.94       3.03       3.11
C      23.33       2.70       4.60
C      24.83       3.21       4.69
C      22.60       3.60       5.66
C      18.99      19.42      19.31
C      18.87      19.95      17.82
C      19.73      18.03      19.18
C      18.95      16.98      18.31
C      18.77      17.59      16.88
C      18.08      19.00      16.86
C      16.65      18.75      17.50
C      16.68      18.21      18.99
C      17.49      16.86      18.89
C      17.56      19.16      19.89
C       8.96       8.65      19.37
C       9.08       8.10      17.89
C       8.23      10.05      19.21
C       9.01      11.07      18.31
C       9.19      10.43      16.90
C       9.89       9.02      16.92
C      11.30       9.28      17.57
C      11.27       9.86      19.04
C      10.47      11.21      18.90
C      10.38       8.93      19.96
C       9.03      19.34       8.75
C       9.31      19.80      10.24
C       8.28      17.95       8.89
C       9.11      16.86       9.65
C       9.40      17.38      11.09
C      10.11      18.78      11.13
C      11.46      18.56      10.35
C      11.33      18.10       8.85
C      10.52      16.75       8.94
C      10.40      19.10       8.05
C      19.06       8.60       8.63
C      18.90       8.05      10.10
C      19.79      10.00       8.79
C      18.99      11.02       9.66
C      18.80      10.39      11.08
C      18.09       8.99      11.05
C      16.69       9.23      10.37
C      16.75       9.81       8.90
C      17.54      11.16       9.06
C      17.65       8.88       8.00
C      19.43      19.10       8.86
C      19.17      19.77      10.25
C      18.05      18.95       8.09
C      16.96      18.16       8.90
C      16.84      18.84      10.32
C      18.18      18.95      11.15
C      18.67      17.45      11.25
C      18.91      16.70       9.89
C      17.51      16.72       9.18
C      19.92      17.61       9.10
C       8.64       8.79       8.91
C       8.91       8.16      10.31
C      10.02       8.95       8.16
C      11.08       9.79       8.95
C      11.21       9.17      10.40
C       9.87       9.05      11.21
C       9.31      10.52      11.26
C       9.07      11.23       9.87
C      10.49      11.22       9.18
C       8.11      10.27       9.08
C      19.35       8.88      19.07
C      19.01       8.30      17.65
C      17.98       9.02      19.86
C      16.92       9.89      19.11
C      16.74       9.33      17.65
C      18.05       9.23      16.80
C      18.64      10.69      16.77
C      18.92      11.34      18.17
C      17.53      11.32      18.92
C      19.89      10.36      18.92
C       8.53      19.15      19.15
C       8.76      19.82      17.75
C       9.93      19.02      19.89
C      11.01      18.23      19.06
C      11.11      18.91      17.64
C       9.75      19.00      16.86
C       9.24      17.51      16.74
C       9.04      16.76      18.11
C      10.46      16.79      18.79
C       8.05      17.67      18.93
C       7.66       7.90       8.14
C       8.14       6.77       7.44
C       7.36       6.09       6.50
C       6.04       6.50       6.17
C       5.59       7.70       6.80
C       6.28       8.23       7.92
C       4.71       8.70       6.11
C       5.37       8.65       9.03
C      20.42      19.96       8.07
C      19.94      21.14       7.44
C      20.71      21.85       6.51
C      22.01      21.45       6.14
C      22.46      20.20       6.69
C      21.77      19.61       7.78
C      23.34      19.25       5.94
C      22.69      19.08       8.84
C      20.34       7.96      19.79
C      19.86       6.81      20.47
C      20.65       6.12      21.40
C      21.97       6.53      21.73
C      22.42       7.73      21.10
C      21.71       8.27      20.00
C      23.33       8.71      21.77
C      22.60       8.69      18.86
C       7.56      20.01      19.96
C       8.04      21.18      20.60
C       7.29      21.87      21.56
C       5.99      21.46      21.94
C       5.54      20.22      21.38
C       6.21      19.65      20.26
C       4.68      19.25      22.13
C       5.28      19.13      19.21
C       8.21       7.67      20.27
C       7.43       8.17      21.35
C       6.53       7.36      22.05
C       6.28       6.01      21.68
C       6.97       5.54      20.52
C       8.07       6.27      20.01
C       6.33       4.63      19.52
C       9.22       5.39      19.62
C      19.75      20.40      20.21
C      20.45      19.91      21.34
C      21.37      20.70      22.04
C      21.68      22.03      21.66
C      21.06      22.49      20.46
C      19.95      21.78      19.91
C      21.75      23.39      19.48
C      18.84      22.69      19.47
C       8.21      20.34       7.93
C       7.56      19.88       6.75
C       6.65      20.67       6.05
C       6.31      21.98       6.45
C       6.86      22.41       7.70
C       7.94      21.70       8.29
C       6.11      23.30       8.64
C       8.99      22.59       8.87
C      19.82       7.63       7.73
C      20.55       8.12       6.62
C      21.45       7.32       5.90
C      21.73       5.99       6.27
C      21.10       5.52       7.47
C      20.00       6.24       8.01
C      21.77       4.61       8.44
C      18.87       5.34       8.42
C      26.51       5.09       4.72
C      27.27       5.60       3.64
C       0.50       5.61       3.63
C       1.28       5.16       4.71
C       0.55       4.91       5.94
C      27.26       4.84       5.94
C       1.25       4.70       7.27
C      26.59       4.47       7.24
C       1.53      22.89       4.82
C       0.79      22.41       3.72
C      27.56      22.42       3.67
C      26.76      22.87       4.74
C      27.46      23.09       5.98
C       0.76      23.14       6.02
C      26.74      23.30       7.30
C       1.40      23.49       7.34
C       1.49       5.08      23.21
C       0.74       5.59      24.29
C      27.50       5.60      24.31
C      26.72       5.16      23.22
C      27.45       4.91      22.00
C       0.74       4.84      22.00
C      26.75       4.69      20.67
C       1.41       4.47      20.69
C      26.47      22.89      23.25
C      27.21      22.40      24.35
C       0.45      22.41      24.40
C       1.25      22.86      23.33
C       0.54      23.09      22.08
C      27.25      23.15      22.05
C       1.26      23.29      20.77
C      26.61      23.50      20.73
C       4.96      26.78       5.06
C       3.89      27.52       5.60
C       3.89       0.75       5.67
C       4.94       1.55       5.17
C       6.17       0.83       4.94
C       6.19      27.54       4.89
C       7.49       1.55       4.79
C       7.52      26.87       4.64
C       4.94       1.20      23.01
C       3.89       0.46      22.43
C       3.90      27.23      22.34
C       4.93      26.44      22.88
C       6.16      27.16      23.14
C       6.16       0.45      23.21
C       7.47      26.44      23.29
C       7.49       1.12      23.48
C      23.08       1.20       4.92
C      24.13       0.47       5.52
C      24.11      27.25       5.67
C      23.07      26.44       5.16
C      21.85      27.16       4.88
C      21.85       0.45       4.76
C      20.52      26.44       4.76
C      20.53       1.11       4.46
C      23.05      26.80      23.02
C      24.12      27.54      22.46
C      24.11       0.76      22.32
C      23.05       1.57      22.80
C      21.83       0.85      23.05
C      21.83      27.55      23.17
C      20.50       1.56      23.17
C      20.50      26.89      23.46
C       5.42       4.97      26.60
C       6.05       4.00      27.41
C       5.98       4.04       0.65
C       5.29       5.06       1.35
C       5.01       6.24       0.57
C       5.11       6.21      27.28
C       4.59       7.55       1.20
C       4.91       7.50      26.53
C      22.58       4.98       1.33
C      21.95       4.02       0.51
C      22.00       4.08      27.28
C      22.69       5.09      26.58
C      22.98       6.27      27.37
C      22.89       6.22       0.66
C      23.40       7.58      26.75
C      23.09       7.51       1.42
C       5.48      23.02       1.48
C       6.06      24.01       0.66
C       5.95      23.99      27.43
C       5.25      22.97      26.74
C       5.00      21.77      27.51
C       5.15      21.79       0.80
C       4.54      20.48      26.89
C       4.99      20.49       1.54
C      22.54      23.03      26.60
C      21.94      24.00      27.42
C      22.04      23.97       0.65
C      22.74      22.95       1.34
C      23.01      21.77       0.56
C      22.86      21.79      27.28
C      23.47      20.47       1.18
C      23.02      20.50      26.52
C      12.38      18.28      19.74
C      13.15      19.46      19.68
C      14.53      19.38      19.55
C      15.24      18.15      19.55
C      14.50      17.05      20.14
C      13.07      17.16      20.30
C      15.18      15.82      20.65
C      12.37      16.41      21.39
C      15.56       9.83      19.82
C      14.81       8.65      19.76
C      13.42       8.71      19.63
C      12.71       9.94      19.61
C      13.44      11.05      20.18
C      14.86      10.95      20.36
C      12.76      12.30      20.65
C      15.56      11.72      21.44
C      15.60      18.20       8.18
C      14.85      19.38       8.20
C      13.45      19.32       8.26
C      12.75      18.08       8.24
C      13.50      16.99       7.66
C      14.94      17.10       7.56
C      12.81      15.80       7.08
C      15.69      16.34       6.52
C      12.45       9.76       8.26
C      13.21       8.58       8.28
C      14.60       8.64       8.32
C      15.31       9.88       8.34
C      14.55      11.00       7.83
C      13.12      10.89       7.70
C      15.21      12.26       7.36
C      12.41      11.63       6.61
C      19.51      12.77      18.17
C      19.56      13.44      19.42
C      19.58      14.83      19.51
C      19.63      15.61      18.34
C      20.25      14.96      17.23
C      20.10      13.53      17.09
C      21.36      15.69      16.54
C      20.66      12.87      15.88
C      19.45      15.25       9.94
C      19.56      14.60       8.67
C      19.64      13.21       8.55
C      19.67      12.40       9.70
C      20.13      13.04      10.88
C      19.91      14.45      11.05
C      21.25      12.37      11.61
C      20.20      15.02      12.40
C       8.51      15.30      18.07
C       8.43      14.65      19.33
C       8.37      13.26      19.45
C       8.34      12.45      18.29
C       7.83      13.10      17.13
C       8.03      14.51      16.96
C       6.71      12.41      16.41
C       7.67      15.10      15.63
C       8.50      12.66       9.86
C       8.45      13.31       8.59
C       8.42      14.70       8.48
C       8.39      15.50       9.64
C       7.79      14.87      10.76
C       7.93      13.44      10.93
C       6.71      15.62      11.48
C       7.38      12.80      12.16
C      18.11      19.54      12.57
C      19.32      19.51      13.32
C      19.32      19.55      14.71
C      18.10      19.58      15.43
C      17.05      20.24      14.72
C      17.01      20.16      13.28
C      16.24      21.28      15.44
C      15.93      20.85      12.51
C       9.86      19.59      15.46
C       8.74      19.56      14.61
C       8.89      19.44      13.23
C      10.16      19.27      12.60
C      11.29      19.59      13.44
C      11.09      19.90      14.83
C      12.71      19.55      12.99
C      11.90      21.01      15.43
C      17.91       8.73      15.34
C      19.14       8.55      14.63
C      19.21       8.41      13.25
C      18.05       8.43      12.47
C      16.84       8.14      13.16
C      16.73       8.45      14.55
C      16.03       7.01      12.62
C      15.32       8.64      15.02
C       9.94       8.48      12.65
C       8.72       8.48      13.37
C       8.68       8.44      14.76
C       9.88       8.42      15.51
C      10.97       7.81      14.82
C      11.05       7.92      13.38
C      11.74       6.75      15.54
C      12.23       7.34      12.67
