22

C      10.64       5.18      17.47
C       9.24       4.98      17.30
C       8.78       4.17      16.29
C       9.68       3.53      15.40
C       9.23       2.66      14.38
C      10.14       2.09      13.50
C      11.53       2.35      13.61
C      11.99       3.16      14.62
C      11.09       3.76      15.54
C      11.54       4.58      16.59
H       8.55       5.46      17.99
H       7.70       4.00      16.18
H       8.17       2.44      14.27
H      12.21       1.89      12.90
C      11.18       6.00      18.58
H      12.60       4.75      16.73
C       9.63       1.20      12.42
H      13.06       3.35      14.73
O      12.45       6.04      18.74
O      10.38       6.64      19.34
O       8.45       0.72      12.53
O      10.38       0.95      11.41
