22

C       8.84       9.43      17.50
C       9.30      10.23      16.49
C       8.40      10.84      15.57
C       8.85      11.66      14.51
C       8.50      13.07      12.52
C       6.94       8.27      18.69
H       5.87      12.53      13.11
H       5.02      11.08      14.93
H       5.48       9.52      16.84
H       9.53       8.97      18.21
H      10.37      10.42      16.37
H       9.92      11.83      14.37
O       9.77      13.11      12.36
O       7.70      13.72      11.76
O       5.76       7.80      18.58
O       7.69       8.03      19.70
C       7.96      12.25      13.64
C       6.56      12.06      13.80
C       6.09      11.25      14.81
C       6.99      10.61      15.71
C       6.55       9.74      16.73
C       7.45       9.16      17.61
