10

O       5.73       6.42       5.16
O       4.26      10.89       5.33
O       3.44       6.19       5.38
O       6.55      11.11       5.10
H       3.44       8.73       5.40
H       6.55       8.58       5.09
C       4.53       6.89       5.28
C       5.45      10.41       5.21
C       4.43       8.29       5.30
C       5.55       9.01       5.19
