108

Zn       6.49       4.37      13.61
Zn       3.49       4.06      13.92
H       2.53       4.47       9.79
H       7.48       1.50      26.37
H       3.14       0.04      13.94
H       6.84       8.39      13.59
H       3.66       6.71      17.01
H       2.88       7.03      18.62
H       8.43       6.49      17.70
H       9.23       7.73      16.67
H       1.41       6.02      16.11
H       7.05       1.41       8.80
H       6.29       1.68      10.43
H       7.44       4.19      17.80
H       8.53       2.36      11.33
H       0.76       0.68      10.68
H       1.51       2.00       9.72
H       4.70       0.08      24.23
H       3.72       0.31      25.75
H       1.95       1.44      24.45
H       3.54       2.26      24.25
H       2.89       1.21      22.92
H       6.66       0.79       3.88
H       6.60       0.15       2.19
H       8.75       3.22      14.77
H       6.52       6.45       3.04
H       8.09       6.99       3.74
H       6.58       7.08       4.73
H       1.23       5.21      12.76
H       3.01       7.11       3.59
H       7.40       1.66      23.98
H       3.44       5.07      20.58
H       6.38       3.27       6.90
H       2.68       7.23       1.24
C       4.81       6.73      13.80
C       4.93       5.52      24.15
C       4.66       4.03       9.73
C       5.29       4.46      17.80
C       4.69       5.13      26.94
C       4.18       2.91       0.59
C       5.98       3.04      26.74
C       3.22       5.16       0.81
C       5.38       4.18      26.15
C       3.75       3.98       1.40
C       3.94       6.14      26.29
C       5.17       1.70      13.73
C       4.44       1.65       1.21
C       4.17       6.42      24.93
C       4.52       1.55       2.61
C       4.81       4.18      11.18
C       5.16       4.26      16.35
C       2.96       6.27       1.64
C       6.81       2.23      25.94
C       4.73       8.13      13.83
C       5.26       0.30      13.71
C       3.84       4.97       4.97
C       3.87       3.89       2.80
C       6.12       3.55      22.58
C       4.34       2.64       4.83
C       5.08       5.69      22.75
C       5.54       3.52       7.54
C       4.31       4.89      19.96
C       5.73       3.63       8.92
C       4.17       4.80      18.58
C       3.38       4.20       9.17
C       6.56       4.39      18.40
C       3.19       4.05       7.80
C       5.49       4.38      24.75
C       6.70       4.58      19.77
C       4.28       3.74       6.98
C       5.56       4.75      20.57
C       2.84       6.40      17.70
C       1.51       6.67      17.00
C       7.10       2.01       9.73
C       8.44       1.75      10.41
C       3.66       0.14      24.65
C       2.97       1.34      24.03
C       6.15       0.07       3.20
C       3.62       5.03       3.59
C       7.00       7.19       3.71
C       6.15       3.42      23.96
C       3.19       6.22       3.00
C       6.83       2.37      24.57
C       4.26       2.68       3.42
Br       1.42       4.27       7.10
Br       8.46       4.60      20.52
Br       2.35       6.91      27.06
Br       4.99       8.51       0.24
N       4.14       3.78       5.56
N       5.63       4.68      22.00
N       1.49       3.85      14.13
N       8.49       4.57      13.40
O       5.99       6.25      13.68
O       6.56       2.52      21.81
O       4.66       6.82      22.15
O       4.60       1.48       5.47
O       2.93       5.03      18.02
O       6.99       3.39       9.44
O       3.53       7.50      24.35
O       4.76       0.31       3.18
O       3.99       2.18      13.85
O       3.74       6.02      13.91
O       6.24       2.41      13.62
O       6.00       4.34      11.69
O       3.98       4.09      15.84
O       3.75       4.11      11.92
O       6.23       4.32      15.61
O       3.74       6.09       5.71
