11

C       8.30      18.85      14.92
N      10.10      15.57      14.77
N      10.49      16.53      17.26
Zn       8.72      16.27      16.18
C       6.88      15.20      17.53
C      10.59      16.94      18.53
O       7.23      14.94      16.31
C      11.62      16.19      16.57
C      11.35      15.68      15.24
C      10.16      14.93      13.55
O       7.74      17.81      15.43
